    6

C       3.46965959     -0.95304330      0.03433809
O       4.21144968      0.02331201      0.12327080
O       5.63329186      3.00530643      0.06095277
H       6.43807143      2.63596595      0.39842248
H       5.06829089      2.24294166      0.01073184
Pt      2.37414940     -2.39762635     -0.09667438
    6

C       3.30525568     -1.07788721      0.03210175
O       3.89688547     -0.07484907      0.06698314
O       5.60727179      2.53018822      0.06004750
H       6.27614018      2.27186076      0.31318303
H       5.02559738      1.76643708      0.04637555
Pt      2.48600650     -2.47080521     -0.01679214
    6

C       3.15026286     -1.19549894      0.03209746
O       3.57469468     -0.15693736      0.00626457
O       5.54035670      2.06293462      0.04622612
H       6.16801296      1.90001494      0.24103296
H       4.96850925      1.27451421      0.08130567
Pt      2.59004508     -2.57227213      0.06546268
    6

C       3.00920937     -1.27639153      0.03048485
O       3.23395778     -0.25634440     -0.05796860
O       5.43351261      1.58440391      0.03538668
H       6.09387076      1.54646135      0.16274079
H       4.91826549      0.78351227      0.11977589
Pt      2.70206646     -2.68954375      0.15266896
    6

C       2.86138194     -1.36423746      0.02785815
O       2.89005320     -0.34311550     -0.12639146
O       5.34288690      1.01714213      0.08151615
H       5.99949387      1.29056165      0.02794573
H       4.87382410      0.30336690      0.15839474
Pt      2.83169848     -2.80678078      0.24492536
    6

C       2.72536864     -1.46175035      0.02805469
O       2.56635005     -0.43636685     -0.19043480
O       5.46867678      0.46354556      0.17541554
H       5.70129076      1.08592393     -0.14391428
H       4.83750056     -0.12061480      0.19089464
Pt      2.96353727     -2.88083809      0.32807097
    6

C       2.57629625     -1.57836013      0.03016034
O       2.21666255     -0.62021848     -0.24401194
O       5.54385174      0.05359894      0.14259048
H       5.41320969      0.61947565     -0.19885576
H       4.81364791     -0.59109105      0.22701369
Pt      3.08760112     -2.88235801      0.40137932
    6

C       2.43338745     -1.69164048      0.03326920
O       1.88795777     -0.79233424     -0.29277069
O       5.50559319     -0.34765261      0.09344596
H       5.24914841      0.15951703     -0.23423190
H       4.78275264     -1.06032232      0.26059870
Pt      3.18831538     -2.89557885      0.46851209
    6

C       2.28259686     -1.78893699      0.03115232
O       1.56753143     -0.94579054     -0.34202783
O       5.47034669     -0.79202923      0.07285977
H       5.09525764     -0.23866883     -0.30056134
H       4.73909031     -1.54046816      0.29704494
Pt      3.29214212     -2.94059294      0.54109406
    6

C       2.11530031     -1.87303793      0.02138082
O       1.25665020     -1.09430766     -0.38900896
O       5.44669308     -1.26580662      0.07105777
H       4.92897251     -0.60697520     -0.38486155
H       4.69871440     -2.01500394      0.33240394
Pt      3.40219337     -3.00511522      0.61941373
