    6

C       3.46965959     -0.95304330      0.03433809
O       4.21144968      0.02331201      0.12327080
O       5.63329186      3.00530643      0.06095277
H       6.43807143      2.63596595      0.39842248
H       5.06829089      2.24294166      0.01073184
Pt      2.37414940     -2.39762635     -0.09667438
    6

C       3.31695123     -1.05073960      0.03080749
O       3.90579267     -0.03027954      0.07338888
O       5.54016296      2.55540718      0.03022055
H       6.36921519      2.22932007      0.34341468
H       5.02277628      1.77231745      0.03994755
Pt      2.41054285     -2.61660601     -0.01742657
    6

C       3.15857563     -1.16775551      0.03123052
O       3.58002825     -0.04497807     -0.00273667
O       5.43408528      2.08473858      0.01045709
H       6.28770259      1.85776334      0.27370847
H       4.97972059      1.26587449      0.08354268
Pt      2.52268965     -2.76130358      0.07476964
    6

C       2.99940074     -1.31432879      0.03335901
O       3.25105317     -0.12455979     -0.07141428
O       5.37107438      1.59448734      0.02143088
H       6.15974987      1.53698876      0.17481026
H       4.92170667      0.77515086      0.12191799
Pt      2.68159378     -2.79263960      0.16267739
    6

C       2.86055789     -1.38796750      0.03107237
O       2.89241221     -0.17338328     -0.15186211
O       5.28791144      1.03947814      0.08407184
H       6.07902987      1.31908319      0.02444378
H       4.86247707      0.27893060      0.16116290
Pt      2.82680353     -2.95263314      0.26584026
    6

C       2.71894984     -1.40754317      0.01672170
O       2.54863096     -0.25471095     -0.22623695
O       5.53238852      0.41468896      0.26767593
H       5.71890282      1.19352209     -0.20670814
H       4.77397638     -0.12006060      0.16456947
Pt      2.99452048     -3.10953924      0.37326628
    6

C       2.58508757     -1.60688605      0.03827225
O       2.17151315     -0.49742914     -0.27890695
O       5.56383497     -0.00320443      0.17909428
H       5.39674751      0.67619769     -0.23399016
H       4.81010012     -0.58971582      0.22555508
Pt      3.12435283     -2.97692597      0.42826950
    6

C       2.41717934     -1.66292412      0.02338735
O       1.83420902     -0.68515843     -0.32863027
O       5.54205926     -0.43853750      0.15491435
H       5.20797829      0.26170408     -0.29197387
H       4.79334314     -1.04013850      0.25797603
Pt      3.26637082     -3.02524494      0.51383159
    6

C       2.25099904     -1.73953491      0.01228431
O       1.54252352     -0.86142600     -0.36616130
O       5.48931002     -0.82009393      0.12492541
H       5.07634679     -0.10534074     -0.34725182
H       4.71712846     -1.57347803      0.31388381
Pt      3.43948192     -2.96101999      0.56523696
    6

C       2.11530031     -1.87303793      0.02138082
O       1.25665020     -1.09430766     -0.38900896
O       5.44669308     -1.26580662      0.07105777
H       4.92897251     -0.60697520     -0.38486155
H       4.69871440     -2.01500394      0.33240394
Pt      3.40219337     -3.00511522      0.61941373
