    3

C       0.00000000      0.00000000      0.00000000
H       4.44443291      0.00000000     -0.00000000
Pt      1.78847735      0.01911415      0.00000000
    3

C       0.00000000      0.00000000      0.00000000
H       4.12582272      0.00000000      0.00000000
Pt      1.64664823      0.14566169      0.00000000
    3

C       0.00000000      0.00000000      0.00000000
H       3.82132791      0.00000000      0.00000000
Pt      1.51920265      0.27346091     -0.00000000
    3

C       0.00000000      0.00000000      0.00000000
H       3.53459832      0.00000000      0.00000000
Pt      1.40993279      0.40171596      0.00000000
    3

C       0.00000000      0.00000000      0.00000000
H       3.27031010     -0.00000000      0.00000000
Pt      1.32351437      0.52968222     -0.00000000
    3

C       0.00000000      0.00000000      0.00000000
H       3.03433280      0.00000000      0.00000000
Pt      1.26539861      0.65606860     -0.00000000
    3

C       0.00000000      0.00000000      0.00000000
H       2.83374795     -0.00000000      0.00000000
Pt      1.24131024      0.77887957     -0.00000000
    3

C       0.00000000      0.00000000      0.00000000
H       2.67652459      0.00000000      0.00000000
Pt      1.25612968      0.89550340     -0.00000000
    3

C       0.00000000      0.00000000      0.00000000
H       2.57063120      0.00000000      0.00000000
Pt      1.31218563      1.00333411      0.00000000
    3

C       0.00000000      0.00000000      0.00000000
H       2.52254044     -0.00000000      0.00000000
Pt      1.40763271      1.10101849     -0.00000000
