    4

C      -0.13468069     -0.00123687     -0.00000000
O      -1.26270678      0.00669929      0.00000000
H       5.55121361     -0.04246975      0.00000000
H       5.54617391     -0.80299267      0.00000000
    4

C      -0.12827408     -0.00062021     -0.00000000
O      -1.26363478      0.01386362      0.00000000
H       4.99853224      0.06376358      0.00000000
H       4.98231769     -0.82180995     -0.00000000
    4

C      -0.12186747     -0.00000354     -0.00000000
O      -1.26456278      0.02102796      0.00000000
H       4.44585087      0.16999692      0.00000000
H       4.41846147     -0.84062723     -0.00000000
    4

C      -0.11546086      0.00061313     -0.00000000
O      -1.26549078      0.02819229      0.00000000
H       3.89316950      0.27623025      0.00000000
H       3.85460526     -0.85944451     -0.00000000
    4

C      -0.10905425      0.00122979     -0.00000000
O      -1.26641878      0.03535663      0.00000000
H       3.34048813      0.38246358      0.00000000
H       3.29074904     -0.87826179     -0.00000000
    4

C      -0.10264764      0.00184646     -0.00000000
O      -1.26734678      0.04252097      0.00000000
H       2.78780676      0.48869692      0.00000000
H       2.72689282     -0.89707907     -0.00000000
    4

C      -0.09624102      0.00246313     -0.00000000
O      -1.26827477      0.04968530      0.00000000
H       2.23512539      0.59493025      0.00000000
H       2.16303661     -0.91589635     -0.00000000
    4

C      -0.08983441      0.00307979     -0.00000000
O      -1.26920277      0.05684964      0.00000000
H       1.68244402      0.70116358      0.00000000
H       1.59918039     -0.93471363     -0.00000000
    4

C      -0.08342780      0.00369646     -0.00000000
O      -1.27013077      0.06401397      0.00000000
H       1.12976265      0.80739692      0.00000000
H       1.03532417     -0.95353092     -0.00000000
    4

C      -0.07702119      0.00431313     -0.00000000
O      -1.27105877      0.07117831      0.00000000
H       0.57708129      0.91363025      0.00000000
H       0.47146795     -0.97234820     -0.00000000
