    4

C      -2.55968070      0.20876313     -0.00000000
O      -3.68770679      0.21669929      0.00000000
H       3.12621360      0.16753025      0.00000000
H       3.12117390     -0.59299267      0.00000000
    4

C      -2.27579878      0.18572570     -0.00000000
O      -3.41020502      0.20027770      0.00000000
H       2.85111317      0.24823877      0.00000000
H       2.83489063     -0.63424216      0.00000000
    4

C      -1.99195005      0.16269096     -0.00000000
O      -3.13289651      0.18386519      0.00000000
H       2.57613943      0.32995487      0.00000000
H       2.54870713     -0.67651102     -0.00000000
    4

C      -1.70805344      0.13964861     -0.00000000
O      -2.85575605      0.16746221      0.00000000
H       2.30125929      0.41219980      0.00000000
H       2.26255021     -0.71931062     -0.00000000
    4

C      -1.42406231      0.11658810     -0.00000000
O      -2.57877117      0.15107097      0.00000000
H       2.02645098      0.49470770      0.00000000
H       1.97638251     -0.76236678     -0.00000000
    4

C      -1.13996581      0.09349747     -0.00000000
O      -2.30192070      0.13469348      0.00000000
H       1.75170721      0.57733582      0.00000000
H       1.69017930     -0.80552677     -0.00000000
    4

C      -0.85574718      0.07036017     -0.00000000
O      -2.02522056      0.11833275      0.00000000
H       1.47704521      0.66007961      0.00000000
H       1.40392253     -0.84877253     -0.00000000
    4

C      -0.57120835      0.04713805     -0.00000000
O      -1.74888778      0.10200207      0.00000000
H       1.20250401      0.74301210      0.00000000
H       1.11759213     -0.89215222     -0.00000000
    4

C      -0.28596903      0.02369363     -0.00000000
O      -1.47317192      0.08574469      0.00000000
H       0.92802635      0.82553904      0.00000000
H       0.83111460     -0.93497736     -0.00000000
    4

C      -0.00213827      0.00012398     -0.00000000
O      -1.19604137      0.06934883      0.00000000
H       0.65376003      0.90814661      0.00000000
H       0.54441961     -0.97761943     -0.00000000
