   13

Pt     -0.28193000      0.21606000     -0.05269000
Pt     -1.62826000      1.98962000     -1.69653000
Pt     -0.32195000     -0.75880000     -2.64227000
Pt      1.87713000     -1.12378000     -1.18455000
Pt     -0.38388000     -2.74089000     -0.81344000
Pt     -2.86757000     -0.08041000     -2.88894000
Pt     -2.68032000     -0.80663000     -0.33346000
O       0.89136075     -3.42472313     -4.32220314
O      -4.84887270      4.82535814      6.56455717
C      -4.70401626      4.00462092      7.70838101
C       0.89566994     -2.00296039     -4.23913698
O      -4.49822025      3.17175813      8.59726899
O       1.76343102     -1.49305613     -5.21817302
   13

Pt     -0.28193000      0.21606000     -0.05269000
Pt     -1.62826000      1.98962000     -1.69653000
Pt     -0.32195000     -0.75880000     -2.64227000
Pt      1.87713000     -1.12378000     -1.18455000
Pt     -0.38388000     -2.74089000     -0.81344000
Pt     -2.86757000     -0.08041000     -2.88894000
Pt     -2.68032000     -0.80663000     -0.33346000
O       1.30583211     -3.80149855     -4.96618249
O      -4.89859584      4.88428682      6.68221953
C      -4.75288142      4.06219437      7.82507136
C       1.32234644     -2.37996274     -4.89737942
O      -4.54792197      3.23046148      8.71533023
O       2.18553410     -1.85284458     -5.86998745
   13

Pt     -0.28193000      0.21606000     -0.05269000
Pt     -1.62826000      1.98962000     -1.69653000
Pt     -0.32195000     -0.75880000     -2.64227000
Pt      1.87713000     -1.12378000     -1.18455000
Pt     -0.38388000     -2.74089000     -0.81344000
Pt     -2.86757000     -0.08041000     -2.88894000
Pt     -2.68032000     -0.80663000     -0.33346000
O       1.72030348     -4.17827398     -5.61016183
O      -4.94831897      4.94321549      6.79988190
C      -4.80174658      4.11976783      7.94176172
C       1.74902295     -2.75696509     -5.55562185
O      -4.59762370      3.28916484      8.83339146
O       2.60763719     -2.21263303     -6.52180187
   13

Pt     -0.28193000      0.21606000     -0.05269000
Pt     -1.62826000      1.98962000     -1.69653000
Pt     -0.32195000     -0.75880000     -2.64227000
Pt      1.87713000     -1.12378000     -1.18455000
Pt     -0.38388000     -2.74089000     -0.81344000
Pt     -2.86757000     -0.08041000     -2.88894000
Pt     -2.68032000     -0.80663000     -0.33346000
O       2.13477484     -4.55504940     -6.25414117
O      -4.99804211      5.00214416      6.91754426
C      -4.85061174      4.17734129      8.05845208
C       2.17569946     -3.13396745     -6.21386428
O      -4.64732542      3.34786819      8.95145270
O       3.02974028     -2.57242149     -7.17361629
   13

Pt     -0.28193000      0.21606000     -0.05269000
Pt     -1.62826000      1.98962000     -1.69653000
Pt     -0.32195000     -0.75880000     -2.64227000
Pt      1.87713000     -1.12378000     -1.18455000
Pt     -0.38388000     -2.74089000     -0.81344000
Pt     -2.86757000     -0.08041000     -2.88894000
Pt     -2.68032000     -0.80663000     -0.33346000
O       2.54924621     -4.93182483     -6.89812052
O      -5.04776525      5.06107283      7.03520662
C      -4.89947690      4.23491475      8.17514243
C       2.60237597     -3.51096980     -6.87210671
O      -4.69702714      3.40657154      9.06951393
O       3.45184337     -2.93220994     -7.82543071
   13

Pt     -0.28193000      0.21606000     -0.05269000
Pt     -1.62826000      1.98962000     -1.69653000
Pt     -0.32195000     -0.75880000     -2.64227000
Pt      1.87713000     -1.12378000     -1.18455000
Pt     -0.38388000     -2.74089000     -0.81344000
Pt     -2.86757000     -0.08041000     -2.88894000
Pt     -2.68032000     -0.80663000     -0.33346000
O       2.96371758     -5.30860025     -7.54209986
O      -5.09748838      5.12000151      7.15286899
C      -4.94834206      4.29248821      8.29183279
C       3.02905247     -3.88797215     -7.53034914
O      -4.74672886      3.46527489      9.18757516
O       3.87394646     -3.29199839     -8.47724513
   13

Pt     -0.28193000      0.21606000     -0.05269000
Pt     -1.62826000      1.98962000     -1.69653000
Pt     -0.32195000     -0.75880000     -2.64227000
Pt      1.87713000     -1.12378000     -1.18455000
Pt     -0.38388000     -2.74089000     -0.81344000
Pt     -2.86757000     -0.08041000     -2.88894000
Pt     -2.68032000     -0.80663000     -0.33346000
O       3.37818894     -5.68537567     -8.18607920
O      -5.14721152      5.17893018      7.27053135
C      -4.99720722      4.35006167      8.40852314
C       3.45572898     -4.26497450     -8.18859157
O      -4.79643058      3.52397824      9.30563640
O       4.29604954     -3.65178684     -9.12905956
   13

Pt     -0.28193000      0.21606000     -0.05269000
Pt     -1.62826000      1.98962000     -1.69653000
Pt     -0.32195000     -0.75880000     -2.64227000
Pt      1.87713000     -1.12378000     -1.18455000
Pt     -0.38388000     -2.74089000     -0.81344000
Pt     -2.86757000     -0.08041000     -2.88894000
Pt     -2.68032000     -0.80663000     -0.33346000
O       3.79266031     -6.06215110     -8.83005854
O      -5.19693466      5.23785885      7.38819371
C      -5.04607238      4.40763513      8.52521350
C       3.88240549     -4.64197686     -8.84683400
O      -4.84613231      3.58268160      9.42369763
O       4.71815263     -4.01157529     -9.78087398
   13

Pt     -0.28193000      0.21606000     -0.05269000
Pt     -1.62826000      1.98962000     -1.69653000
Pt     -0.32195000     -0.75880000     -2.64227000
Pt      1.87713000     -1.12378000     -1.18455000
Pt     -0.38388000     -2.74089000     -0.81344000
Pt     -2.86757000     -0.08041000     -2.88894000
Pt     -2.68032000     -0.80663000     -0.33346000
O       4.20713167     -6.43892652     -9.47403789
O      -5.24665779      5.29678753      7.50585608
C      -5.09493754      4.46520858      8.64190386
C       4.30908199     -5.01897921     -9.50507643
O      -4.89583403      3.64138495      9.54175886
O       5.14025572     -4.37136374    -10.43268840
   13

Pt     -0.28193000      0.21606000     -0.05269000
Pt     -1.62826000      1.98962000     -1.69653000
Pt     -0.32195000     -0.75880000     -2.64227000
Pt      1.87713000     -1.12378000     -1.18455000
Pt     -0.38388000     -2.74089000     -0.81344000
Pt     -2.86757000     -0.08041000     -2.88894000
Pt     -2.68032000     -0.80663000     -0.33346000
O       4.62160304     -6.81570194    -10.11801723
O      -5.29638093      5.35571620      7.62351844
C      -5.14380270      4.52278204      8.75859421
C       4.73575850     -5.39598156    -10.16331887
O      -4.94553575      3.70008830      9.65982010
O       5.56235881     -4.73115219    -11.08450282
