   13

Pt     -0.28193000      0.21606000     -0.05269000
Pt     -1.62826000      1.98962000     -1.69653000
Pt     -0.32195000     -0.75880000     -2.64227000
Pt      1.87713000     -1.12378000     -1.18455000
Pt     -0.38388000     -2.74089000     -0.81344000
Pt     -2.86757000     -0.08041000     -2.88894000
Pt     -2.68032000     -0.80663000     -0.33346000
O       0.39239429     -1.78537872      1.00550078
O       1.57371081     -3.72738341     -0.69270080
C      -2.93737000     10.81212002      3.34127001
C      10.63841002     -5.39545001      3.77230001
O      -1.83561000     10.69125002      3.84978001
O      10.59545002     -4.09311001      4.26717001
   13

Pt     -0.28193000      0.21606000     -0.05269000
Pt     -1.62826000      1.98962000     -1.69653000
Pt     -0.32195000     -0.75880000     -2.64227000
Pt      1.87713000     -1.12378000     -1.18455000
Pt     -0.38388000     -2.74089000     -0.81344000
Pt     -2.86757000     -0.08041000     -2.88894000
Pt     -2.68032000     -0.80663000     -0.33346000
O       0.43444801     -1.93930576      1.00558074
O       1.45227611     -3.38896285     -0.42950052
C      -2.67581784      9.46124302      3.08669141
C      10.63841002     -5.39545001      3.77230001
O      -1.80442608      9.41628925      3.59285941
O      10.59545002     -4.09311001      4.26717001
   13

Pt     -0.28193000      0.21606000     -0.05269000
Pt     -1.62826000      1.98962000     -1.69653000
Pt     -0.32195000     -0.75880000     -2.64227000
Pt      1.87713000     -1.12378000     -1.18455000
Pt     -0.38388000     -2.74089000     -0.81344000
Pt     -2.86757000     -0.08041000     -2.88894000
Pt     -2.68032000     -0.80663000     -0.33346000
O       0.47650174     -2.09323279      1.00566070
O       1.33084141     -3.05054230     -0.16630024
C      -2.41426567      8.11036603      2.83211281
C      10.63841002     -5.39545001      3.77230001
O      -1.77324215      8.14132848      3.33593881
O      10.59545002     -4.09311001      4.26717001
   13

Pt     -0.28193000      0.21606000     -0.05269000
Pt     -1.62826000      1.98962000     -1.69653000
Pt     -0.32195000     -0.75880000     -2.64227000
Pt      1.87713000     -1.12378000     -1.18455000
Pt     -0.38388000     -2.74089000     -0.81344000
Pt     -2.86757000     -0.08041000     -2.88894000
Pt     -2.68032000     -0.80663000     -0.33346000
O       0.51855546     -2.24715983      1.00574066
O       1.20940671     -2.71212175      0.09690004
C      -2.15271350      6.75948904      2.57753421
C      10.63841002     -5.39545001      3.77230001
O      -1.74205823      6.86636771      3.07901821
O      10.59545002     -4.09311001      4.26717001
   13

Pt     -0.28193000      0.21606000     -0.05269000
Pt     -1.62826000      1.98962000     -1.69653000
Pt     -0.32195000     -0.75880000     -2.64227000
Pt      1.87713000     -1.12378000     -1.18455000
Pt     -0.38388000     -2.74089000     -0.81344000
Pt     -2.86757000     -0.08041000     -2.88894000
Pt     -2.68032000     -0.80663000     -0.33346000
O       0.56060918     -2.40108686      1.00582062
O       1.08797201     -2.37370120      0.36010032
C      -1.89116133      5.40861204      2.32295561
C      10.63841002     -5.39545001      3.77230001
O      -1.71087430      5.59140695      2.82209762
O      10.59545002     -4.09311001      4.26717001
   13

Pt     -0.28193000      0.21606000     -0.05269000
Pt     -1.62826000      1.98962000     -1.69653000
Pt     -0.32195000     -0.75880000     -2.64227000
Pt      1.87713000     -1.12378000     -1.18455000
Pt     -0.38388000     -2.74089000     -0.81344000
Pt     -2.86757000     -0.08041000     -2.88894000
Pt     -2.68032000     -0.80663000     -0.33346000
O       0.60266291     -2.55501390      1.00590058
O       0.96653731     -2.03528065      0.62330060
C      -1.62960917      4.05773505      2.06837701
C      10.63841002     -5.39545001      3.77230001
O      -1.67969038      4.31644618      2.56517702
O      10.59545002     -4.09311001      4.26717001
   13

Pt     -0.28193000      0.21606000     -0.05269000
Pt     -1.62826000      1.98962000     -1.69653000
Pt     -0.32195000     -0.75880000     -2.64227000
Pt      1.87713000     -1.12378000     -1.18455000
Pt     -0.38388000     -2.74089000     -0.81344000
Pt     -2.86757000     -0.08041000     -2.88894000
Pt     -2.68032000     -0.80663000     -0.33346000
O       0.64471663     -2.70894093      1.00598054
O       0.84510261     -1.69686010      0.88650088
C      -1.36805700      2.70685806      1.81379841
C      10.63841002     -5.39545001      3.77230001
O      -1.64850645      3.04148541      2.30825642
O      10.59545002     -4.09311001      4.26717001
   13

Pt     -0.28193000      0.21606000     -0.05269000
Pt     -1.62826000      1.98962000     -1.69653000
Pt     -0.32195000     -0.75880000     -2.64227000
Pt      1.87713000     -1.12378000     -1.18455000
Pt     -0.38388000     -2.74089000     -0.81344000
Pt     -2.86757000     -0.08041000     -2.88894000
Pt     -2.68032000     -0.80663000     -0.33346000
O       0.68677035     -2.86286796      1.00606051
O       0.72366791     -1.35843955      1.14970116
C      -1.10650483      1.35598106      1.55921981
C      10.63841002     -5.39545001      3.77230001
O      -1.61732253      1.76652464      2.05133583
O      10.59545002     -4.09311001      4.26717001
   13

Pt     -0.28193000      0.21606000     -0.05269000
Pt     -1.62826000      1.98962000     -1.69653000
Pt     -0.32195000     -0.75880000     -2.64227000
Pt      1.87713000     -1.12378000     -1.18455000
Pt     -0.38388000     -2.74089000     -0.81344000
Pt     -2.86757000     -0.08041000     -2.88894000
Pt     -2.68032000     -0.80663000     -0.33346000
O       0.72882407     -3.01679500      1.00614047
O       0.60223321     -1.02001900      1.41290144
C      -0.84495267      0.00510407      1.30464121
C      10.63841002     -5.39545001      3.77230001
O      -1.58613860      0.49156387      1.79441523
O      10.59545002     -4.09311001      4.26717001
   13

Pt     -0.28193000      0.21606000     -0.05269000
Pt     -1.62826000      1.98962000     -1.69653000
Pt     -0.32195000     -0.75880000     -2.64227000
Pt      1.87713000     -1.12378000     -1.18455000
Pt     -0.38388000     -2.74089000     -0.81344000
Pt     -2.86757000     -0.08041000     -2.88894000
Pt     -2.68032000     -0.80663000     -0.33346000
O       0.77087780     -3.17072203      1.00622043
O       0.48079851     -0.68159845      1.67610172
C      -0.58340050     -1.34577292      1.05006262
C      10.63841002     -5.39545001      3.77230001
O      -1.55495468     -0.78339689      1.53749463
O      10.59545002     -4.09311001      4.26717001
