   13

Pt     -0.28193000      0.21606000     -0.05269000
Pt     -1.62826000      1.98962000     -1.69653000
Pt     -0.32195000     -0.75880000     -2.64227000
Pt      1.87713000     -1.12378000     -1.18455000
Pt     -0.38388000     -2.74089000     -0.81344000
Pt     -2.86757000     -0.08041000     -2.88894000
Pt     -2.68032000     -0.80663000     -0.33346000
O       0.55203647     -0.75581117     -0.82118894
O       0.66100235     -1.40970375      1.93987683
C      -0.52156746     -1.90871155      1.36915705
C      10.63841002     -5.39545001      3.77230001
O      -1.57689679     -1.52882947      1.86506234
O      10.59545002     -4.09311001      4.26717001
   13

Pt     -0.28193000      0.21606000     -0.05269000
Pt     -1.62826000      1.98962000     -1.69653000
Pt     -0.32195000     -0.75880000     -2.64227000
Pt      1.87713000     -1.12378000     -1.18455000
Pt     -0.38388000     -2.74089000     -0.81344000
Pt     -2.86757000     -0.08041000     -2.88894000
Pt     -2.68032000     -0.80663000     -0.33346000
O       0.54878606     -0.75468890     -0.82008484
O       0.66769831     -1.43174860      1.94297057
C      -0.51908187     -1.92383404      1.37486164
C      10.63841002     -5.39545001      3.77230001
O      -1.57773824     -1.55315795      1.87046260
O      10.59545002     -4.09311001      4.26717001
   13

Pt     -0.28193000      0.21606000     -0.05269000
Pt     -1.62826000      1.98962000     -1.69653000
Pt     -0.32195000     -0.75880000     -2.64227000
Pt      1.87713000     -1.12378000     -1.18455000
Pt     -0.38388000     -2.74089000     -0.81344000
Pt     -2.86757000     -0.08041000     -2.88894000
Pt     -2.68032000     -0.80663000     -0.33346000
O       0.54553565     -0.75356663     -0.81898074
O       0.67439427     -1.45379344      1.94606432
C      -0.51659628     -1.93895652      1.38056623
C      10.63841002     -5.39545001      3.77230001
O      -1.57857969     -1.57748644      1.87586287
O      10.59545002     -4.09311001      4.26717001
   13

Pt     -0.28193000      0.21606000     -0.05269000
Pt     -1.62826000      1.98962000     -1.69653000
Pt     -0.32195000     -0.75880000     -2.64227000
Pt      1.87713000     -1.12378000     -1.18455000
Pt     -0.38388000     -2.74089000     -0.81344000
Pt     -2.86757000     -0.08041000     -2.88894000
Pt     -2.68032000     -0.80663000     -0.33346000
O       0.54228525     -0.75244436     -0.81787663
O       0.68109024     -1.47583829      1.94915807
C      -0.51411070     -1.95407901      1.38627082
C      10.63841002     -5.39545001      3.77230001
O      -1.57942113     -1.60181493      1.88126313
O      10.59545002     -4.09311001      4.26717001
   13

Pt     -0.28193000      0.21606000     -0.05269000
Pt     -1.62826000      1.98962000     -1.69653000
Pt     -0.32195000     -0.75880000     -2.64227000
Pt      1.87713000     -1.12378000     -1.18455000
Pt     -0.38388000     -2.74089000     -0.81344000
Pt     -2.86757000     -0.08041000     -2.88894000
Pt     -2.68032000     -0.80663000     -0.33346000
O       0.53903484     -0.75132208     -0.81677253
O       0.68778620     -1.49788313      1.95225182
C      -0.51162511     -1.96920149      1.39197541
C      10.63841002     -5.39545001      3.77230001
O      -1.58026258     -1.62614341      1.88666340
O      10.59545002     -4.09311001      4.26717001
   13

Pt     -0.28193000      0.21606000     -0.05269000
Pt     -1.62826000      1.98962000     -1.69653000
Pt     -0.32195000     -0.75880000     -2.64227000
Pt      1.87713000     -1.12378000     -1.18455000
Pt     -0.38388000     -2.74089000     -0.81344000
Pt     -2.86757000     -0.08041000     -2.88894000
Pt     -2.68032000     -0.80663000     -0.33346000
O       0.53578443     -0.75019981     -0.81566843
O       0.69448216     -1.51992798      1.95534556
C      -0.50913952     -1.98432398      1.39768000
C      10.63841002     -5.39545001      3.77230001
O      -1.58110403     -1.65047190      1.89206366
O      10.59545002     -4.09311001      4.26717001
   13

Pt     -0.28193000      0.21606000     -0.05269000
Pt     -1.62826000      1.98962000     -1.69653000
Pt     -0.32195000     -0.75880000     -2.64227000
Pt      1.87713000     -1.12378000     -1.18455000
Pt     -0.38388000     -2.74089000     -0.81344000
Pt     -2.86757000     -0.08041000     -2.88894000
Pt     -2.68032000     -0.80663000     -0.33346000
O       0.53253402     -0.74907754     -0.81456433
O       0.70117812     -1.54197282      1.95843931
C      -0.50665393     -1.99944646      1.40338458
C      10.63841002     -5.39545001      3.77230001
O      -1.58194548     -1.67480038      1.89746393
O      10.59545002     -4.09311001      4.26717001
   13

Pt     -0.28193000      0.21606000     -0.05269000
Pt     -1.62826000      1.98962000     -1.69653000
Pt     -0.32195000     -0.75880000     -2.64227000
Pt      1.87713000     -1.12378000     -1.18455000
Pt     -0.38388000     -2.74089000     -0.81344000
Pt     -2.86757000     -0.08041000     -2.88894000
Pt     -2.68032000     -0.80663000     -0.33346000
O       0.52928361     -0.74795527     -0.81346023
O       0.70787408     -1.56401767      1.96153306
C      -0.50416835     -2.01456895      1.40908917
C      10.63841002     -5.39545001      3.77230001
O      -1.58278692     -1.69912887      1.90286419
O      10.59545002     -4.09311001      4.26717001
   13

Pt     -0.28193000      0.21606000     -0.05269000
Pt     -1.62826000      1.98962000     -1.69653000
Pt     -0.32195000     -0.75880000     -2.64227000
Pt      1.87713000     -1.12378000     -1.18455000
Pt     -0.38388000     -2.74089000     -0.81344000
Pt     -2.86757000     -0.08041000     -2.88894000
Pt     -2.68032000     -0.80663000     -0.33346000
O       0.52603320     -0.74683299     -0.81235613
O       0.71457004     -1.58606251      1.96462680
C      -0.50168276     -2.02969143      1.41479376
C      10.63841002     -5.39545001      3.77230001
O      -1.58362837     -1.72345736      1.90826446
O      10.59545002     -4.09311001      4.26717001
   13

Pt     -0.28193000      0.21606000     -0.05269000
Pt     -1.62826000      1.98962000     -1.69653000
Pt     -0.32195000     -0.75880000     -2.64227000
Pt      1.87713000     -1.12378000     -1.18455000
Pt     -0.38388000     -2.74089000     -0.81344000
Pt     -2.86757000     -0.08041000     -2.88894000
Pt     -2.68032000     -0.80663000     -0.33346000
O       0.52278279     -0.74571072     -0.81125203
O       0.72126600     -1.60810736      1.96772055
C      -0.49919717     -2.04481391      1.42049835
C      10.63841002     -5.39545001      3.77230001
O      -1.58446982     -1.74778584      1.91366472
O      10.59545002     -4.09311001      4.26717001
