12

C         -7.14560        0.67800       -1.45110
C         -7.51270       -0.47290       -0.74920
C         -6.58150       -1.11520        0.06480
H         -7.88000        1.19670       -2.06200
H         -8.52020       -0.86740       -0.84260
H         -6.87590       -1.99430        0.63580
C         -5.27940       -0.63240        0.15400
C         -4.91230        0.51850       -0.54790
C         -5.84360        1.16090       -1.36180
H         -4.54490       -1.15120        0.76480
H         -3.90480        0.91300       -0.45450
H         -5.54920        2.04010       -1.93260

