   48

C      -5.36479489      1.57297206      1.79813314
C      -4.19137851      1.77033485      1.80345639
H      -6.41453486      1.39646704      1.79326246
H      -3.14166488      1.94700069      1.80813479
C     -11.62525190     -9.14915402     -0.34253923
C     -10.44981562     -8.61964761     -0.30479199
H      -9.47777281     -8.18174688     -0.27354903
C      11.14275899      0.48889808     -0.77633447
C      11.42150916     -0.56472717     -0.05411975
H      11.60647860      1.45617632     -0.59428609
H      10.43146650      0.45614302     -1.59901548
C      11.70574275     -1.63045312      0.67686275
C      11.96919544     -2.61657179      1.35329790
H      12.19764178     -3.47351774      1.94105245
C       1.23032630      7.40907860    -16.58087013
C       0.70592402      6.36238347    -15.94707875
H       1.88996230      8.12677312    -16.10052130
H       1.03280155      7.61732702    -17.62782873
C       0.97506287      6.08862976    -14.54208544
H       0.04355204      5.66045430    -16.46932738
C       0.45072263      5.04189107    -13.90831398
H       1.63738355      6.79059519    -14.01981916
H      -0.20886136      4.32416016    -14.38867939
H       0.64825111      4.83364019    -12.86135688
H      11.45757031     13.96540522    -11.11334570
H      11.67892023     13.69350711    -10.50855533
C      11.56975396     -0.95754294    -10.54405484
C      11.28303531     -0.39410477    -11.55398637
H      11.82581941     -1.46064147     -9.64223001
C      10.93811170      0.28337620    -12.76829549
H      11.77115653      0.91020591    -13.11263748
H      10.06247115      0.92827211    -12.61720407
H      10.70063663     -0.43826901    -13.56093717
H       8.27972770      4.73403593    -23.16295687
C      10.37827607      4.98423714    -22.80762076
C       9.05294695      5.31371980    -22.67186805
C      11.54653794      4.69394321    -22.92710879
H      12.57405687      4.43859395    -23.03209156
H       8.74687644      6.16193535    -22.07024388
C       4.27542695     16.27857004      5.32199431
C       4.44124051     16.25694272      4.02195401
C       4.69916933     16.73332214      2.77560263
H       5.12684511     17.65530708      0.86096601
C       5.03005953     17.80352260      1.94168547
H       5.18159489     18.77349102      2.42825696
H       3.99637504      7.63893700     -3.78503953
H       3.28049356     16.50753310      5.73055531
H       5.14120308     16.09996476      5.97595683
   48

C      -5.36209036      1.57596066      1.79853131
C      -4.18869113      1.77339745      1.80424410
H      -6.41180484      1.39937650      1.79338185
H      -3.13898421      1.95011413      1.80933465
C     -11.62011235     -9.14798837     -0.33953019
C     -10.44472380     -8.61841084     -0.30196029
H      -9.47272462     -8.18044470     -0.27083054
C      11.14763712      0.49270153     -0.76615351
C      11.42616600     -0.56099168     -0.04389485
H      11.61113649      1.46008616     -0.58408063
H      10.43674326      0.45983104     -1.58896566
C      11.70996075     -1.62689596      0.68704219
C      11.97301013     -2.61319133      1.36340142
H      12.20118318     -3.47027734      1.95106362
C       1.16478180      7.52047696    -16.56467007
C       0.73541572      6.40314712    -16.00059573
H       1.80077110      8.24227278    -16.05559174
H       0.90618481      7.77166092    -17.58073165
C       1.07923707      6.07676936    -14.64902870
H       0.09349863      5.69971777    -16.54986098
C       0.65017634      4.94798522    -14.09227922
H       1.71916671      6.77701156    -14.09439378
H      -0.04700753      4.26853350    -14.51889498
H       0.88381242      4.72878403    -13.05721249
H      11.47182816     13.97042842    -11.09518314
H      11.69237434     13.69795764    -10.49098091
C      11.58130411     -0.95552359    -10.52855736
C      11.29568468     -0.39227956    -11.53747410
H      11.83649430     -1.45845960     -9.62745087
C      10.95234385      0.28474922    -12.75012987
H      11.78638267      0.91216417    -13.09347954
H      10.07610737      0.92980865    -12.59937745
H      10.71562027     -0.43908145    -13.54149066
H       7.19254937      4.53092692    -22.38368493
C      10.45863089      4.99349160    -22.83195880
C       9.14786354      5.33644065    -22.70095482
C      11.62147201      4.69248617    -22.95676332
H      12.64572525      4.43045650    -23.06598511
H       8.88488223      6.23490380    -22.08156861
C       4.27393608     16.27751531      5.33286719
C       4.44202611     16.26248092      4.03136134
C       4.70236218     16.74654236      2.78806351
H       5.12887049     17.65119360      0.86521876
C       5.03388097     17.81136541      1.94535132
H       5.18724421     18.78678834      2.42342982
H       4.00182805      7.64206722     -3.78406788
H       3.27664242     16.50468891      5.74122177
H       5.14069579     16.09651717      5.98764452
   48

C      -5.36498715      1.57141099      1.79126919
C      -4.19168999      1.76899584      1.79706269
H      -6.41460507      1.39467826      1.78611142
H      -3.14206854      1.94582285      1.80228581
C     -11.62069640     -9.15436629     -0.34397735
C     -10.44544621     -8.62459415     -0.30672265
H      -9.47356515     -8.18646984     -0.27583490
C      11.14555316      0.48921050     -0.76778258
C      11.42403140     -0.56453082     -0.04548053
H      11.60887894      1.45670958     -0.58571256
H      10.43488840      0.45623389     -1.59068264
C      11.70755835     -1.63057927      0.68542456
C      11.97035796     -2.61701201      1.36173215
H      12.19838699     -3.47419956      1.94933168
C       1.08609826      7.62022932    -16.55449209
C       0.75479091      6.43874377    -16.06183362
H       1.69727512      8.34367836    -16.01739320
H       0.76702096      7.91308611    -17.53747433
C       1.17542084      6.05974610    -14.76636086
H       0.13376783      5.73565372    -16.63806012
C       0.84754445      4.85409452    -14.28878777
H       1.79196713      6.75655314    -14.17989081
H       0.10787247      4.21174284    -14.65748709
H       1.11800785      4.62329183    -13.26580569
H      11.47621417     13.96769784    -11.09284261
H      11.69604009     13.69501032    -10.48898003
C      11.58523345     -0.95919569    -10.52651040
C      11.30098688     -0.39575305    -11.53471277
H      11.83941687     -1.46224378     -9.62591154
C      10.95969706      0.28144599    -12.74622454
H      11.79407867      0.90963332    -13.08919746
H      10.08307448      0.92640276    -12.59542970
H      10.72423898     -0.44390429    -13.53675458
H       6.22578597      4.40254817    -21.51637515
C      10.52131496      4.99267196    -22.87135721
C       9.20597604      5.32050708    -22.75146914
C      11.68190313      4.68535559    -23.00059064
H      12.70419419      4.41790367    -23.11382363
H       8.96448238      6.22577936    -22.13077808
C       4.26767586     16.26914406      5.33375371
C       4.43782882     16.26073758      4.03069037
C       4.70042032     16.75249960      2.79030217
H       5.12547581     17.63979496      0.85896882
C       5.03252876     17.81192618      1.93860910
H       5.18795141     18.79277452      2.40815736
H       3.99958895      7.63777790     -3.79336331
H       3.26821187     16.49448268      5.74220475
H       5.13544844     16.08572145      5.98918594
   48

C      -5.36340818      1.57067394      1.79113124
C      -4.19024467      1.76836896      1.79668456
H      -6.41290730      1.39382798      1.78623991
H      -3.14074148      1.94527142      1.80174317
C     -11.61800849     -9.15619942     -0.34101481
C     -10.44289079     -8.62625648     -0.30422401
H      -9.47112287     -8.18799817     -0.27371524
C      11.14670266      0.48877200     -0.76728754
C      11.42531030     -0.56499010     -0.04497786
H      11.60996414      1.45634843     -0.58527726
H      10.43602615      0.45573766     -1.59016500
C      11.70874844     -1.63114407      0.68587621
C      11.97145784     -2.61767336      1.36212804
H      12.19947663     -3.47492438      1.94967079
C       1.00667240      7.71629505    -16.53881741
C       0.77465025      6.47948596    -16.11770938
H       1.59120373      8.43899331    -15.97410361
H       0.62901680      8.04717803    -17.48759750
C       1.27264633      6.04987179    -14.87998929
H       0.17492850      5.77906049    -16.72097391
C       1.04976800      4.77505633    -14.48223922
H       1.86504892      6.74106338    -14.26244595
H       0.26453405      4.16607448    -14.78971139
H       1.35805030      4.53217426    -13.47192322
H      11.48036628     13.96783579    -11.09163329
H      11.69973929     13.69516645    -10.48788874
C      11.59028271     -0.95838171    -10.52409799
C      11.30731474     -0.39447813    -11.53192644
H      11.84357565     -1.46173598     -9.62378203
C      10.96795356      0.28332612    -12.74290766
H      11.80204355      0.91222238    -13.08610948
H      10.09127982      0.92807823    -12.59175156
H      10.73381825     -0.44274339    -13.53310105
H       5.34818164      4.27402370    -20.56882852
C      10.57855488      4.99551435    -22.91019652
C       9.25637681      5.30489165    -22.80077994
C      11.73749339      4.68299563    -23.04427837
H      12.75832794      4.41063233    -23.16178928
H       9.01607870      6.20116747    -22.18357342
C       4.26764689     16.26411351      5.33911184
C       4.43950269     16.26237203      4.03438201
C       4.70404107     16.76185662      2.79673234
H       5.12709305     17.63178550      0.85659261
C       5.03656947     17.81587331      1.93584332
H       5.19431607     18.80211709      2.39681099
H       3.99975260      7.63680567     -3.79848730
H       3.26619566     16.48762517      5.74799622
H       5.13654069     16.07819686      5.99498763
   48

C      -5.36092991      1.57055344      1.79324968
C      -4.18787924      1.76828780      1.79835479
H      -6.41033358      1.39366184      1.78879013
H      -3.13847981      1.94520585      1.80304327
C     -11.61573659     -9.15663036     -0.33626934
C     -10.44069001     -8.62659605     -0.29994859
H      -9.46898382     -8.18826959     -0.26983780
C      11.14805238      0.48821867     -0.76895767
C      11.42697267     -0.56551787     -0.04668274
H      11.61131750      1.45582987     -0.58705656
H      10.43715450      0.45515978     -1.59169889
C      11.71050124     -1.63172462      0.68409490
C      11.97327851     -2.61830075      1.36028031
H      12.20141880     -3.47557226      1.94776550
C       0.92741966      7.80245861    -16.52584110
C       0.79418913      6.52102607    -16.17503269
H       1.48231335      8.52225965    -15.93313770
H       0.49396760      8.16544649    -17.44022301
C       1.36767155      6.04473189    -14.99478305
H       0.21656073      5.82601736    -16.80592799
C       1.25100188      4.70968845    -14.67546759
H       1.93537798      6.72786185    -14.34712810
H       0.41921881      4.12868736    -14.91999182
H       1.59824462      4.45487998    -13.67868014
H      11.48063761     13.96775009    -11.09495826
H      11.69993064     13.69524809    -10.49114895
C      11.59262992     -0.95669138    -10.52580638
C      11.31043702     -0.39226623    -11.53364969
H      11.84540930     -1.46041368     -9.62551480
C      10.97221214      0.28628203    -12.74478665
H      11.80545460      0.91560696    -13.08864298
H      10.09588385      0.93087943    -12.59312062
H      10.73901817     -0.43964356    -13.53517457
H       4.53665010      4.13722572    -19.54434700
C      10.62985889      4.99823385    -22.95213977
C       9.30119324      5.28945979    -22.85226223
C      11.78716110      4.68064470    -23.09150851
H      12.80671637      4.40356972    -23.21355765
H       9.05585347      6.17519696    -22.23798055
C       4.26985227     16.25923512      5.34435803
C       4.44303021     16.26418525      4.03785546
C       4.70912974     16.77140995      2.80276797
H       5.12947426     17.62395975      0.85350617
C       5.04177299     17.82000932      1.93246212
H       5.20201741     18.81162960      2.38479340
H       3.99900256      7.63598911     -3.80386975
H       3.26654058     16.48092415      5.75394487
H       5.13999648     16.07078455      6.00050104
   48

C      -5.35773520      1.57124795      1.79804392
C      -4.18471264      1.76893540      1.80257420
H      -6.40711989      1.39439339      1.79409811
H      -3.13534228      1.94579826      1.80674740
C     -11.61419542     -9.15571684     -0.32983771
C     -10.43911287     -8.62570672     -0.29388105
H      -9.46737724     -8.18740454     -0.26409266
C      11.15003177      0.48776870     -0.77255119
C      11.42946506     -0.56585867     -0.05033244
H      11.61332717      1.45538417     -0.59086849
H      10.43871000      0.45465893     -1.59499952
C      11.71327670     -1.63203512      0.68036301
C      11.97629103     -2.61858536      1.35648742
H      12.20469394     -3.47581760      1.94392621
C       0.85061693      7.87297272    -16.51865449
C       0.81621805      6.55890972    -16.23706030
H       1.37127544      8.58915368    -15.89643744
H       0.36326668      8.26035446    -17.39818935
C       1.46038768      6.04298278    -15.11111042
H       0.26361670      5.87162531    -16.89744179
C       1.44855830      4.65675814    -14.86631566
H       2.00267487      6.71574274    -14.43430787
H       0.57099972      4.09766342    -15.04817040
H       1.83589211      4.39131517    -13.88392063
H      11.47644374     13.96722543    -11.10200646
H      11.69612353     13.69497273    -10.49801993
C      11.59081960     -0.95517791    -10.53162935
C      11.30829152     -0.39051710    -11.53989114
H      11.84387661     -1.45908955     -9.63107912
C      10.96951227      0.28840806    -12.75183205
H      11.80167278      0.91764043    -13.09651926
H      10.09386996      0.93301470    -12.59969513
H      10.73618276     -0.43658601    -13.54286194
H       3.78551528      4.02855479    -18.43798469
C      10.67792826      4.99926792    -22.99630519
C       9.34343240      5.27327326    -22.90541198
C      11.83341360      4.67633038    -23.14116630
H      12.85165643      4.39447874    -23.26786990
H       9.09236084      6.15026362    -22.29255310
C       4.27381958     16.25506824      5.34897730
C       4.44786357     16.26665926      4.04059507
C       4.71500070     16.78157319      2.80785241
H       5.13168654     17.61662556      0.84909850
C       5.04726717     17.82470526      1.92783464
H       5.21009948     18.82171426      2.37140612
H       3.99731691      7.63552697     -3.80926774
H       3.26872816     16.47495340      5.75949440
H       5.14539792     16.06411083      6.00521743
   48

C      -5.35231994      1.57209697      1.80739568
C      -4.17918360      1.76969316      1.81118124
H      -6.40180763      1.39532641      1.80407397
H      -3.12971144      1.94647034      1.81464210
C     -11.61192801     -9.15441376     -0.32070628
C     -10.43669515     -8.62453447     -0.28503602
H      -9.46483114     -8.18633981     -0.25551151
C      11.15439853      0.48751765     -0.77873795
C      11.43465072     -0.56595097     -0.05670387
H      11.61774350      1.45512712     -0.59742702
H      10.44233207      0.45431245     -1.60060162
C      11.71904419     -1.63205481      0.67379185
C      11.98256512     -2.61854715      1.34975450
H      12.21146091     -3.47571752      1.93706367
C       0.77336011      7.91953731    -16.51605638
C       0.84302610      6.58330183    -16.30613804
H       1.25454670      8.63466856    -15.86256126
H       0.23147040      8.32458669    -17.35813209
C       1.55104930      6.04104307    -15.22933081
H       0.32437588      5.90259167    -16.99900252
C       1.64061615      4.61284086    -15.05241497
H       2.06591344      6.70198502    -14.52365943
H       0.71957042      4.06897809    -15.17431506
H       2.06920176      4.33927642    -14.08512271
H      11.46680622     13.96696088    -11.11201820
H      11.68753709     13.69492090    -10.50786025
C      11.58265983     -0.95457716    -10.54240730
C      11.29792325     -0.39024141    -11.55128324
H      11.83738455     -1.45830545     -9.64144912
C      10.95598075      0.28831044    -12.76426334
H      11.78749788      0.91677372    -13.10970338
H      10.08096446      0.93303214    -12.61170242
H      10.72065952     -0.43512641    -13.55610267
H       3.09546850      4.01980309    -17.25566168
C      10.72458459      4.99975268    -23.04203854
C       9.38484868      5.25776528    -22.95985749
C      11.87799305      4.67082247    -23.19244310
H      12.89474514      4.38381402    -23.32383339
H       9.12911928      6.12853637    -22.34684663
C       4.28097029     16.25168843      5.35359172
C       4.45518425     16.26989939      4.04319567
C       4.72252284     16.79248635      2.81252458
H       5.13406457     17.60997653      0.84382661
C       5.05357474     17.83013197      1.92242544
H       5.21901076     18.83254699      2.35706654
H       3.99568080      7.63577131     -3.81365140
H       3.27417441     16.46974554      5.76538319
H       5.15431954     16.05828513      6.00963114
   48

C      -5.36572466      1.57349942      1.79970370
C      -4.19231067      1.77087665      1.80503485
H      -6.41545617      1.39694211      1.79491264
H      -3.14258526      1.94747052      1.80978212
C     -11.62660718     -9.15158709     -0.34303968
C     -10.45116500     -8.62207455     -0.30527989
H      -9.47912167     -8.18417761     -0.27405011
C      11.14512888      0.48626651     -0.77506031
C      11.42486575     -0.56698238     -0.05267726
H      11.60836799      1.45384543     -0.59340978
H      10.43360123      0.45289985     -1.59751081
C      11.70848863     -1.63295717      0.67816810
C      11.97126495     -2.61934228      1.35448432
H      12.19956699     -3.47641008      1.94211569
C       0.70618173      7.93201654    -16.52119883
C       0.89015704      6.57503084    -16.38609570
H       1.14387642      8.65192998    -15.83712424
H       0.11045327      8.35340128    -17.32307992
C       1.65637997      6.02478062    -15.35864239
H       0.42009709      5.89515250    -17.10809197
C       1.84351761      4.56992076    -15.24123812
H       2.13698097      6.67696707    -14.62208206
H       0.88714722      4.03332355    -15.31169296
H       2.31261912      4.29117603    -14.28962578
H      11.45757047     13.96540507    -11.11334534
H      11.67892011     13.69350730    -10.50855572
C      11.56979537     -0.95772023    -10.54368789
C      11.28301489     -0.39430216    -11.55361336
H      11.82586374     -1.46081214     -9.64186027
C      10.93812780      0.28319006    -12.76792645
H      11.77119605      0.91000698    -13.11223541
H      10.06249441      0.92809914    -12.61684969
H      10.70065941     -0.43843713    -13.56058634
H       2.48841623      4.19751991    -16.05034727
C      10.80384629      4.99830861    -23.07716820
C       9.45917987      5.24215559    -23.00664762
C      11.95527893      4.66223402    -23.23043337
H      12.97059296      4.36922456    -23.36416257
H       9.19865553      6.10952810    -22.39272666
C       4.26457734     16.24991605      5.35463109
C       4.44095151     16.27458023      4.04242526
C       4.71016980     16.80467923      2.81398481
H       5.11908304     17.60430745      0.83552558
C       5.04097764     17.83670102      1.91389412
H       5.20814130     18.84458887      2.33957631
H       3.98578867      7.63635541     -3.81964888
H       3.25527832     16.46625954      5.76594818
H       5.13870638     16.05410703      6.01198581
