   48

C      -5.36737140      1.57284079      1.80115950
C      -4.19395786      1.77021865      1.80649090
H      -6.41710015      1.39626535      1.79639027
H      -3.14422894      1.94679378      1.81125971
C     -11.62713527     -9.15253584     -0.34323462
C     -10.45169301     -8.62302392     -0.30547304
H      -9.47964912     -8.18512744     -0.27424502
C      11.15459444      0.48413034     -0.40091545
C      11.43492850     -0.56895733      0.32147372
H      11.61754191      1.45188091     -0.21944836
H      10.44290808      0.45044745     -1.22321196
C      11.71843014     -1.63494567      1.05233622
C      11.98071688     -2.62150276      1.72859738
H      12.20859628     -3.47872116      2.31617166
C       1.94563447      6.98233584    -17.08627445
C       2.86345797      6.04442259    -17.67803821
H       0.96627457      6.68846987    -16.67907099
H       1.84115386      7.99443032    -17.50475653
C       3.23184248      6.58645513    -16.38161976
H       3.09083827      5.27897593    -18.39419841
C       4.40711039      7.52762016    -16.30960239
H       3.16771917      5.93405672    -15.49232923
H       4.34654202      8.30025535    -17.09480548
H       6.51067839      7.19621082    -15.91345197
H      11.60413241     14.73118472    -10.22244500
H      11.82548373     14.45928735     -9.61765522
C      11.81083986     -1.91388638    -10.05847976
C      11.52405220     -1.35047622    -11.06840756
H      12.06692773     -2.41697036     -9.15665307
C      11.17917606     -0.67297432    -12.28271793
H      12.01225150     -0.04616046    -12.62701585
H      10.30354556     -0.02806124    -12.13164416
H      10.94170911     -1.39459482    -13.07538520
H       4.41755673      8.02293021    -15.31951962
C       6.11520803      6.58394239    -17.90507852
C       5.66860551      5.72562404    -18.75197151
C       5.69433849      6.71505526    -16.49456206
H       5.54924291      5.73283864    -16.00664829
H       5.45131417      5.13677929    -19.61023485
C       3.86474099     16.25487806      5.18029537
C       4.25964363     16.76064914      4.13737744
C       4.68657647     17.30766232      3.01071644
H       5.16406084     17.29018070      0.96586700
C       5.10861544     17.84883949      1.89785996
H       5.42746908     18.88765081      1.84278339
H       3.97989427      7.57703292     -3.88630953
H       3.52165628     15.81550088      6.08651859
H       6.82813772      7.34346174    -18.27741795
   48

C      -5.36421608      1.57301986      1.80434373
C      -4.19087995      1.77064606      1.80914432
H      -6.41388315      1.39622620      1.80002883
H      -3.14122730      1.94744482      1.81342004
C     -11.62256536     -9.15480959     -0.33077029
C     -10.44723324     -8.62505225     -0.29364268
H      -9.47528405     -8.18695077     -0.26295427
C      11.15642637      0.48595332     -0.40231588
C      11.43719332     -0.56662495      0.32084673
H      11.61932675      1.45385876     -0.22168721
H      10.44445957      0.45172937     -1.22444379
C      11.72112475     -1.63209470      1.05247914
C      11.98379785     -2.61816779      1.72944229
H      12.21200663     -3.47496130      2.31762143
C       1.91704145      6.94700528    -17.03210951
C       2.80675192      6.12253642    -17.74364847
H       0.96979175      6.56398386    -16.66589818
H       1.77988733      7.96695473    -17.34117770
C       3.22698339      6.56598896    -16.44086556
H       2.96552437      5.53551293    -18.46005039
C       4.39447240      7.51772529    -16.32241268
H       3.19475412      5.83654886    -15.63011367
H       4.27921888      8.32719826    -17.00157012
H       6.46025494      7.38555405    -16.17608198
H      11.60513521     14.72769178    -10.22981636
H      11.82639741     14.45586290     -9.62511360
C      11.81118951     -1.91840121    -10.05633166
C      11.52436240     -1.35565035    -11.06630653
H      12.06741121     -2.42090421     -9.15441681
C      11.17962290     -0.67907721    -12.28058971
H      12.01286811     -0.05224835    -12.62535604
H      10.30342574     -0.03381471    -12.13023556
H      10.94267892     -1.40246898    -13.07183722
H       4.44863517      7.90643418    -15.31768880
C       6.22472904      6.59807180    -17.83906042
C       5.95273707      5.62341494    -18.52242527
C       5.69610245      6.82651445    -16.59900970
H       5.16080214      5.60832769    -16.35438752
H       5.68833144      4.96519081    -19.29323318
C       3.86658628     16.25876487      5.17151556
C       4.26123206     16.76399503      4.12829391
C       4.68789631     17.31040725      3.00129885
H       5.16499915     17.29174561      0.95652965
C       5.10968151     17.85097857      1.88811061
H       5.42842670     18.88981544      1.83234007
H       3.98053713      7.57526045     -3.88972789
H       3.52373649     15.81986050      6.07801045
H       6.94939256      7.29720771    -18.25223235
   48

C      -5.37335588      1.56213022      1.74747913
C      -4.20019961      1.76062299      1.75304285
H      -6.42287264      1.38456617      1.74245997
H      -3.15071862      1.93819938      1.75798259
C     -11.62161715     -9.17685428     -0.36116130
C     -10.44670299     -8.64614742     -0.32415159
H      -9.47510284     -8.20725761     -0.29357788
C      11.14955621      0.47971863     -0.43526866
C      11.43022092     -0.57034784      0.29178391
H      11.61157934      1.44843678     -0.25720056
H      10.43863818      0.44255411     -1.25827131
C      11.71403450     -1.63327455      1.02733480
C      11.97658027     -2.61699341      1.70790981
H      12.20466766     -3.47173876      2.29922011
C       1.90555094      6.85621949    -17.03709579
C       2.76819487      6.15235609    -17.87120890
H       0.99291619      6.38091979    -16.71655769
H       1.73776620      7.88139767    -17.23391664
C       3.24390294      6.49884027    -16.55869272
H       2.87580153      5.78433435    -18.58993910
C       4.40965082      7.44306304    -16.39329423
H       3.24712114      5.69001361    -15.82711622
H       4.23243123      8.29213842    -16.96164147
H       6.37795048      7.54502485    -16.51877532
H      11.60458778     14.69019851    -10.30416429
H      11.82494282     14.42018236     -9.69853849
C      11.81899129     -1.95441213    -10.07833044
C      11.53331986     -1.39491133    -11.09012491
H      12.07426390     -2.45400597     -9.17472361
C      11.19013475     -0.72235570    -12.30646998
H      12.02366533     -0.09605717    -12.65185775
H      10.31281820     -0.07660137    -12.15981231
H      10.95550676     -1.44950320    -13.09494285
H       4.50907589      7.71882878    -15.37715288
C       6.35363048      6.54054835    -17.80780937
C       6.29808886      5.48583574    -18.28979642
C       5.69753113      6.87142734    -16.76715275
H       4.64815517      5.39710400    -16.84941581
H       5.97847027      4.76076674    -18.98997019
C       3.84344511     16.26440429      5.07992427
C       4.23917684     16.76662490      4.03572214
C       4.66702247     17.30976500      2.90766270
H       5.14687877     17.28493775      0.86371841
C       5.08998640     17.84708871      1.79342305
H       5.40819804     18.88594953      1.73487031
H       3.97479690      7.55257047     -3.95453598
H       3.49966283     15.82811442      5.98727955
H       7.08859205      7.18040788    -18.27277552
   48

C      -5.39922641      1.57982848      1.57705536
C      -4.22609322      1.77797091      1.58662353
H      -6.44873160      1.40258029      1.56844793
H      -3.17664168      1.95523379      1.59514287
C     -11.64299746     -9.16183262     -0.53087684
C     -10.46807641     -8.63140820     -0.49050950
H      -9.49647344     -8.19275147     -0.45716967
C      11.13046014      0.48684697     -0.53873965
C      11.40799010     -0.56163657      0.19194007
H      11.59214181      1.45575458     -0.36110781
H      10.42272448      0.44816594     -1.36451280
C      11.68861750     -1.62296260      0.93114725
C      11.94819898     -2.60520100      1.61509415
H      12.17370191     -3.45865938      2.20932828
C       1.93779572      6.79590785    -17.12449438
C       2.76979919      6.21786731    -18.08114861
H       1.06187142      6.22973489    -16.85703901
H       1.73990446      7.82299567    -17.20501975
C       3.31735063      6.45537197    -16.76144417
H       2.83931716      6.14050520    -18.79450379
C       4.46844427      7.38122412    -16.54729594
H       3.36771215      5.57179996    -16.11981551
H       4.22630135      8.27767277    -16.99445857
H       6.28652718      7.73567327    -16.98006913
H      11.63113029     14.67426859    -10.43608498
H      11.84880673     14.40543024     -9.82914173
C      11.83690249     -1.96961663    -10.17197370
C      11.55546072     -1.41231683    -11.18595220
H      12.08843808     -2.46725735     -9.26637523
C      11.21747373     -0.74248842    -12.40483692
H      12.05301665     -0.11733645    -12.74812241
H      10.33936204     -0.09565996    -12.26336436
H      10.98605559     -1.47199072    -13.19220131
H       4.61472871      7.54277359    -15.52340221
C       6.50879249      6.49743079    -17.84245160
C       6.64896492      5.40371825    -18.07609701
C       5.72959565      6.94495649    -17.03013972
H       4.15666744      5.25856175    -17.51721085
H       6.30808166      4.62917308    -18.71226132
C       3.80970843     16.28584989      4.91237959
C       4.20975970     16.78556932      3.86868204
C       4.64227362     17.32598399      2.74116160
H       5.13016723     17.29629455      0.69925539
C       5.06985499     17.86059773      1.62745429
H       5.38874053     18.89919565      1.56790040
H       3.97326953      7.55370135     -4.10293567
H       3.46217889     15.85173131      5.81930326
H       7.26190394      7.07973817    -18.36300695
   48

C      -5.40754156      1.63433993      1.57223182
C      -4.23377793      1.82843241      1.58228502
H      -6.45761236      1.46071466      1.56319868
H      -3.18376328      2.00207080      1.59124758
C     -11.68973292     -9.06835144     -0.61749964
C     -10.51300974     -8.54224581     -0.57393348
H      -9.53991654     -8.10716276     -0.53794735
C      11.11614664      0.50260829     -0.56742465
C      11.39075956     -0.55276373      0.15441209
H      11.58129521      1.46846815     -0.38229545
H      10.40752850      0.47308428     -1.39285284
C      11.66842486     -1.62106243      0.88466435
C      11.92525998     -2.60975220      1.56032052
H      12.14837573     -3.46881611      2.14734943
C       1.92234914      6.92682878    -17.02841448
C       2.71563283      6.48653902    -18.11559632
H       1.08589783      6.27917616    -16.81839500
H       1.69406103      7.95159081    -16.97746525
C       3.34463269      6.58427270    -16.80170992
H       2.74174669      6.77424189    -18.77403470
C       4.47538350      7.50764432    -16.52638218
H       3.44903751      5.63702969    -16.27292257
H       4.16990509      8.44971333    -16.83296491
H       6.11752742      8.07188981    -17.29733184
H      11.65633154     14.76856940    -10.34855405
H      11.87355968     14.49408694     -9.74409600
C      11.80552479     -1.87795741    -10.22123055
C      11.52503629     -1.31156639    -11.23041604
H      12.05620094     -2.38374422     -9.31992635
C      11.18820434     -0.63084135    -12.44355867
H      12.02589080     -0.00569956    -12.78245910
H      10.31228764      0.01774619    -12.29586306
H      10.95333732     -1.35311415    -13.23684195
H       4.67398944      7.54623557    -15.49962155
C       6.59109069      6.65701683    -17.71477247
C       6.87305567      5.55148119    -17.70153181
C       5.71284586      7.21409908    -17.13361261
H       3.68483475      5.44464116    -18.00153044
H       6.48882208      4.73417391    -18.26414683
C       3.85414158     16.28088451      5.01959740
C       4.25499623     16.78777823      3.97970695
C       4.68837235     17.33591412      2.85628907
H       5.17436741     17.32121940      0.81378753
C       5.11680553     17.87812892      1.74663262
H       5.43919952     18.91607127      1.69533829
H       3.98004886      7.62252942     -4.06755447
H       3.50591393     15.84052715      5.92321440
H       7.36083755      7.17567220    -18.28881238
   48

C      -5.37888484      1.59895409      1.74028289
C      -4.20534600      1.79461760      1.74684346
H      -6.42874923      1.42392116      1.73438647
H      -3.15552675      1.96966009      1.75269239
C     -11.65286156     -9.11502208     -0.41794320
C     -10.47672406     -8.58729581     -0.37838883
H      -9.50411398     -8.15087384     -0.34571213
C      11.14098047      0.48641951     -0.44369747
C      11.41897339     -0.56763535      0.27867775
H      11.60532938      1.45320720     -0.26112707
H      10.43011242      0.45473967     -1.26705767
C      11.70005478     -1.63461017      1.00948136
C      11.96005516     -2.62207659      1.68565260
H      12.18592661     -3.48008032      2.27313185
C       1.89369787      6.81375845    -16.83570626
C       2.64834864      6.52089237    -18.04147450
H       1.10191229      6.09420168    -16.67329330
H       1.63206203      7.82701783    -16.66166624
C       3.34812438      6.48029572    -16.74761456
H       2.61431862      7.11374937    -18.59960876
C       4.45836142      7.42030408    -16.41392670
H       3.51035422      5.49184974    -16.32436127
H       4.09110543      8.39000907    -16.58776011
H       5.92021748      8.12413310    -17.51946086
H      11.63254300     14.74007900    -10.24692475
H      11.85197099     14.46686512     -9.64263744
C      11.80624407     -1.90672808    -10.09769452
C      11.52202909     -1.34223027    -11.10707533
H      12.06019624     -2.41084378     -9.19626417
C      11.18062331     -0.66374455    -12.32054125
H      12.01647535     -0.03788130    -12.66277770
H      10.30450259     -0.01650235    -12.17089325
H      10.94394136     -1.38682650    -13.11274593
H       4.70479750      7.34939871    -15.38901392
C       6.63951279      6.60772563    -17.48815925
C       7.04403034      5.51299546    -17.22248326
C       5.67897740      7.25665822    -17.13754295
H       3.24120018      5.49760699    -18.28465752
H       6.60054036      4.64608741    -17.69879246
C       3.87244299     16.26269346      5.14209536
C       4.26968335     16.76874292      4.10038960
C       4.69913252     17.31593312      2.97498286
H       5.17936346     17.29907099      0.93108203
C       5.12366822     17.85718272      1.86333967
H       5.44447761     18.89547920      1.80969176
H       3.98480404      7.59229993     -3.93334922
H       3.52734635     15.82306243      6.04728206
H       7.41725006      7.05205470    -18.12022439
   48

C      -5.37014496      1.57961760      1.79246079
C      -4.19674148      1.77647991      1.79759818
H      -6.41987768      1.40350804      1.78785153
H      -3.14703322      1.95259367      1.80218454
C     -11.63499582     -9.14508147     -0.33968404
C     -10.45934826     -8.61607431     -0.30232422
H      -9.48714006     -8.17859398     -0.27144760
C      11.15000068      0.48008308     -0.40557380
C      11.42975675     -0.57230179      0.31834842
H      11.61346532      1.44777036     -0.22525012
H      10.43838340      0.44593524     -1.22807355
C      11.71262369     -1.63759651      1.05073338
C      11.97428726     -2.62350960      1.72838117
H      12.20161400     -3.48016686      2.31715179
C       1.88730646      6.70427097    -16.76250712
C       2.59976766      6.55189256    -18.07135955
H       1.14110566      5.92112741    -16.64434788
H       1.59815488      7.69768037    -16.46980644
C       3.36150725      6.38525962    -16.80408349
H       2.50478617      7.38351986    -18.52191651
C       4.45556142      7.33855601    -16.40958514
H       3.58155484      5.36632579    -16.48022317
H       4.03194077      8.32515894    -16.45871302
H       5.75528983      8.12970713    -17.81206362
H      11.61311793     14.71566556    -10.23951380
H      11.83377391     14.44406795     -9.63470307
C      11.80749474     -1.93078175    -10.05783447
C      11.52144018     -1.36857819    -11.06827296
H      12.06301131     -2.43284130     -9.15551299
C      11.17765801     -0.69273236    -12.28311546
H      12.01204196     -0.06667738    -12.62765355
H      10.30157023     -0.04663580    -12.13337913
H      10.94035345     -1.41652540    -13.07437185
H       4.74118948      7.16181447    -15.38655104
C       6.69436487      6.56366720    -17.36473010
C       7.20107086      5.49283884    -16.85314554
C       5.66621335      7.28692159    -17.23510015
H       2.82832676      5.61161582    -18.59160783
H       6.70232713      4.59230542    -17.24028765
C       3.86889243     16.26010847      5.15661667
C       4.26446052     16.76460691      4.11345508
C       4.69206919     17.31008326      2.98643687
H       5.17007603     17.28973034      0.94192362
C       5.11475545     17.84960323      1.87316716
H       5.43430531     18.88814462      1.81703322
H       3.98144984      7.57216774     -3.90122935
H       3.52523190     15.82181550      6.06305331
H       7.47767692      6.92933946    -18.05029405
   48

C      -5.36737141      1.57284082      1.80115948
C      -4.19395787      1.77021866      1.80649087
H      -6.41710016      1.39626535      1.79639030
H      -3.14422893      1.94679374      1.81125975
C     -11.62713533     -9.15253543     -0.34323461
C     -10.45169289     -8.62302439     -0.30547304
H      -9.47964922     -8.18512741     -0.27424503
C      11.15459288      0.48413121     -0.40091465
C      11.43496296     -0.56894221      0.32147929
H      11.61752312      1.45189456     -0.21946093
H      10.44289584      0.45042515     -1.22320342
C      11.71845648     -1.63494114      1.05233885
C      11.98071452     -2.62150534      1.72859462
H      12.20857055     -3.47873044      2.31616944
C       1.89536397      6.66659692    -16.72344024
C       2.55748506      6.63911674    -18.12525127
H       1.19605607      5.82637811    -16.64946278
H       1.58590457      7.63217660    -16.31522478
C       3.38181677      6.36681237    -16.88278656
H       2.41332047      7.66754729    -18.46908810
C       4.46348664      7.32219755    -16.42713457
H       3.66224391      5.32359907    -16.65348289
H       3.98455184      8.31840029    -16.35777516
H       5.62132569      8.18441816    -18.08451431
H      11.60413243     14.73118475    -10.22244501
H      11.82548375     14.45928738     -9.61765524
C      11.81084059     -1.91388784    -10.05848079
C      11.52405111     -1.35047972    -11.06840921
H      12.06692808     -2.41696749     -9.15665158
C      11.17917590     -0.67297457    -12.28271803
H      12.01225208     -0.04616058    -12.62701394
H      10.30354595     -0.02806113    -12.13164258
H      10.94170846     -1.39459247    -13.07538751
H       4.78293912      7.03992370    -15.40664172
C       6.75467276      6.58351578    -17.26398635
C       7.34164171      5.53346224    -16.52084275
C       5.66949146      7.37133636    -17.34066255
H       2.44959532      5.82113825    -18.86234041
H       6.79310860      4.62357541    -16.81938653
C       3.86474551     16.25487330      5.18029516
C       4.25971542     16.76083256      4.13749763
C       4.68663888     17.30784400      3.01082629
H       5.16398192     17.29004009      0.96593979
C       5.10861095     17.84883768      1.89785601
H       5.42748546     18.88763551      1.84260883
H       3.97989427      7.57703292     -3.88630953
H       3.52158463     15.81529846      6.08639451
H       7.54265132      6.87366965    -17.99755972
