   29
   0.0000000000000000     
C       5.10855577     17.84853916      1.89767170
C       4.68595853     17.30509905      3.00927557
C       4.25956997     16.76014443      4.13706191
C       3.86477547     16.25524198      5.18050302
C      11.36481859      7.91414260    -19.38846891
C      10.36923648      8.01789005    -20.35240132
C      12.55124541      7.39241700    -19.59530507
C       0.95800215      4.45324138    -14.95016809
C       0.83715246      5.90579553    -15.14488564
C      -0.11372103      6.46379802    -15.99670755
C      -0.22703932      7.82424881    -16.17922370
C      -4.19395762      1.77021676      1.80649204
C      -5.36737168      1.57283956      1.80116104
H       3.97989428      7.57703286     -3.88630984
H      -6.41710055      1.39626651      1.79638873
H       3.52196177     15.81691494      6.08735368
H       5.42703329     18.88763952      1.84494116
H       5.16490588     17.29178169      0.96460945
H      10.05964406      7.84335639    -21.35839227
H      11.12336889      8.30172461    -18.38810674
H       1.96289751      4.11140661    -15.23481713
H       0.81064292      4.19508862    -13.89215982
H       0.23120503      3.87668924    -15.53767920
H      13.30035864      6.92532831    -20.19472867
H      -0.96849620      8.25415797    -16.84316017
H      -0.79410122      5.79468874    -16.53931384
H       1.52787115      6.55194288    -14.59183324
H       0.41501649      8.53731237    -15.67225875
H      -3.14422960      1.94679502      1.81125808
