          29

 C   -5.3673718798655896        1.5728407320532598        1.8011594757543374     
 C   -4.1939578695711672        1.7702181887528023        1.8064904859012285     
 H   -6.4171003704694876        1.3962653326532017        1.7963903049747298     
 H   -3.1442293805164594        1.9467935971778303        1.8112596548486961     
 C    1.8953634565128088        6.6665969209292273       -16.723440238813939     
 C    2.5574848191408535        6.6391166839536382       -18.125251269668727     
 H    1.1960560692934339        5.8263776582731825       -16.649462962874239     
 H    1.5859044788134531        7.6321760827566303       -16.315224783777310     
 C    3.3818165527604522        6.3668123670558527       -16.882786779024347     
 H    2.4133203359794688        7.6675472925686838       -18.469088191358399     
 C    4.4634861125993961        7.3221975540238677       -16.427134706447330     
 H    3.6622439131621509        5.3235990711235299       -16.653483204029904     
 H    3.9845518362384582        8.3183999394905594       -16.357775161345373     
 H    5.6213256880163316        8.1844177217216849       -18.084514725627102     
 H    4.7829390916784122        7.0399237016390819       -15.406642011487833     
 C    6.7546726851311991        6.5835156333422011       -17.263986434503149     
 C    7.3416415016224716        5.5334622359482868       -16.520842752388042     
 C    5.6694911421940581        7.3713363635235343       -17.340662551401493     
 H    2.4495953231152394        5.8211377319198556       -18.862340666949226     
 H    6.7931085977890779        4.6235752529680960       -16.819386933466934     
 H    7.5426510306512924        6.8736696497991545       -17.997560069635149     
 C    3.8647452183683857        16.254873142206332        5.1802948327335239     
 C    4.2597149649384622        16.760832533997508        4.1374975339724340     
 C    4.6866388806241845        17.307844003142453        3.0108262854654555     
 H    5.1639814743809200        17.290040003972024       0.96593965482504629     
 C    5.1086106915039906        17.848837518922828        1.8978558658534741     
 H    5.4274850017733147        18.887635513400237        1.8426083210809696     
 H    3.5215845693724130        15.815298455532515        6.0863940328534989     
 H    3.9798942733014586        7.5770328489222960       -3.8863098298005667     
