          29

 C   -4.2924657031147264        1.9835616269210554       -2.6280792375110238     
 C   -3.8579273945666781        1.8859225931236492       -1.4107422615890335     
 H   -5.3302529063841968        1.8509994182573888       -2.9290772826552987     
 H   -3.8768947569446639        1.7347811385005145      -0.35643331445112825     
 H   -3.6087080423454294        2.2132474385792480       -3.4436193809244964     
 C   -4.6264820962733104        8.4967001413848031       -15.674074079397927     
 H   -4.8577795391219070        7.5247524450892476       -16.061716019719299     
 H   -5.3183990476017673        8.9927572920677115       -15.023206144914665     
 H   -3.7027237364436614        8.9723593555282797       -15.936969895712595     
 C    6.2300164145596710        5.6005906180989031       -18.248578516235586     
 C    5.8198874651439967        6.4025571584419509       -17.188585843234456     
 H    5.5990328267396743        4.7710260024171589       -18.583505691316073     
 C    6.6220839793681909        7.4563956779342080       -16.762839192735878     
 H    4.8658351888986928        6.2048334081226368       -16.689404843722322     
 H    8.4655530094368689        8.5374963648767466       -17.062144516923262     
 H    6.2989425971255377        8.0876140709970681       -15.928776406673139     
 C    8.2441761484456055        6.9064353986565630       -18.457612857063996     
 C    7.4421772873992271        5.8524794458182292       -18.883051756464528     
 C    7.8342059790639746        7.7082787090503846       -17.397272740560791     
 H    7.7646705423430999        5.2212449781405930       -19.717344077973753     
 H    9.1978577757246320        7.1051060544872424       -18.957132087356904     
 C    3.8494756699361226        16.409623066671838        5.3080437721876530     
 C    4.2444921271515534        16.915656044190978        4.2653010600041581     
 C    4.6714087363529950        17.462638563614028        3.1386101217006099     
 H    5.1486688221921995        17.444739424197959        1.0937024917136173     
 C    5.0933326650328237        18.003581230985027        2.0255956522614285     
 H    5.4122046328941460        19.042378278690009        1.9702884899878688     
 H    3.5062605072317337        15.969958384547377        6.2140792103516862     
 H    5.7612004558280043        8.2649170411106549       -4.3500973558083391     
