          29

 C   -3.9880472876259594        1.8503141304886288       -3.1308882129110049E-003
 C   -2.8144856207063920        2.0467024856900777        1.6606336856019417E-003
 H   -5.0377194628320972        1.6733907435389270       -8.6516019403440388E-003
 H   -1.7649176704803293        2.2242726526831085        6.4118564617507753E-003
 C    2.0487143019399685        7.7327751986853555       -14.981281608105697     
 C    1.5239885731900398        6.6858606373729552       -14.347929659960332     
 H    2.7083236808207363        8.4502563215543436       -14.500624070967469     
 H    1.8511402240014829        7.9409591636657515       -16.028256057366274     
 C    1.7934127415314229        6.4124548038024072       -12.942812012652057     
 H   0.86168794959910988        5.9841017615262002       -14.870256627805594     
 C    1.2687090175095093        5.3654295737526194       -12.309611972883895     
 H    2.4556254383077127        7.1142222055008855       -12.420396131974904     
 H   0.60919124260726687        4.6479783244775703       -12.790444720342922     
 H    1.4661568568813139        5.1570622138532531       -11.262647565029143     
 H    8.1830800785597262        4.3491553257915543       -22.138434783716864     
 C    10.282013371468199        4.5971693086423162       -21.784043401119924     
 C    8.9571681598414212        4.9280248054927815       -21.647764885847668     
 C    11.451420514913776        4.3106884970298571       -21.902433240168552     
 H    12.478369432019663        4.0530368192898534       -22.007333438058250     
 H    8.6525086286598736        5.7765753483227904       -21.045890658745378     
 C    3.8708744547252762        13.868886760003301        3.2773293946048412     
 C    4.0608477840326884        13.953776593153966        1.9973960351818647     
 C    4.2376970616664922        14.039620208983344       0.65898881818175103     
 H    4.7110983448048094        15.273299472399184       -1.0475195063639937     
 C    4.5713592452497247        15.224132309968274        2.6378575270826304E-002
 H    4.7092746916343975        16.155759244340985       0.56367468432120349     
 H    4.1081869043050618        13.119119077983608        7.4918778765680080E-002
 H    2.8960056734037742        14.025582104618824        3.7338423631841486     
 H    4.6754759903796055        13.635394624247786        3.9711109079431446     
