          29

 C   -5.3657247864971787        1.5734993623096776        1.7997036044984112     
 C   -4.1923106701141375        1.7708761667423991        1.8050345263174121     
 H   -6.4154561735496021        1.3969417725437479        1.7949123022332587     
 H   -3.1425852602512938        1.9474704790455273        1.8097816884205749     
 C   0.70618158544497112        7.9320162995691232       -16.521198956318518     
 C   0.89015697394356186        6.5750306973819628       -16.386095703412693     
 H    1.1438762051954199        8.6519295470953210       -15.837124680953108     
 H   0.11045324891835270        8.3534011518485443       -17.323079922527992     
 C    1.6563797329875940        6.0247801700094055       -15.358642393174280     
 H   0.42009692032487217        5.8951521657975281       -17.108092215236109     
 C    1.8435176148308261        4.5699204967094049       -15.241238407784389     
 H    2.1369804556188132        6.6769667157698747       -14.622082525778218     
 H   0.88714721950664355        4.0333235498138507       -15.311693395194098     
 H    2.3126186483614295        4.2911758564320941       -14.289625782663897     
 H    2.4884160580883403        4.1975194464848435       -16.050347743855550     
 C    10.803845929275996        4.9983082679220772       -23.077168198246788     
 C    9.4591797938241626        5.2421553226920494       -23.006647818111052     
 C    11.955278929466997        4.6622340233030686       -23.230433524465692     
 H    12.970592961162723        4.3692244902884037       -23.364162777832512     
 H    9.1986550227965598        6.1095279061743328       -22.392726784413352     
 C    4.2645771475732612        16.249915900186327        5.3546305709866093     
 C    4.4409515147613359        16.274580227420998        4.0424250614235913     
 C    4.7101696617492665        16.804678897273899        2.8139847264264786     
 H    5.1190825301465770        17.604307157508273       0.83552527744169058     
 C    5.0409774367310618        17.836700865955510        1.9138936462373877     
 H    5.2081408248192824        18.844588873770540        2.3395762803293478     
 H    3.2552782817120192        16.466259107765048        5.7659481783467141     
 H    5.1387063775905082        16.054107029234927        6.0119855737902466     
 H    3.9857884389324045        7.6363550572486396       -3.8196491912249240     
