   48

C      -5.36737156      1.57283965      1.80116104
C      -4.19395723      1.77021676      1.80649226
H      -6.41710054      1.39626651      1.79638873
H      -3.14422922      1.94679547      1.81125847
C     -11.62713507     -9.15253577     -0.34323426
C     -10.45169284     -8.62302414     -0.30547317
H      -9.47964898     -8.18512683     -0.27424485
C      11.15361147      0.48284562     -0.47526048
C      11.43375388     -0.57027643      0.24714950
H      11.61665205      1.45054571     -0.29374881
H      10.44197903      0.44924958     -1.29761020
C      11.71725615     -1.63628642      0.97798839
C      11.97971481     -2.62279181      1.65425411
H      12.20777269     -3.47995203      2.24184488
C      -0.22703899      7.82424880    -16.17922368
C      -0.11372103      6.46379817    -15.99670737
H       0.41501690      8.53731258    -15.67225873
H      -0.96849600      8.25415805    -16.84315989
C       0.83715266      5.90579553    -15.14488522
H      -0.79410107      5.79468874    -16.53931337
C       0.95800229      4.45324161    -14.95016799
H       1.52787158      6.55194287    -14.59183288
H       0.23120508      3.87668946    -15.53767889
H       0.81064310      4.19508910    -13.89215980
H      11.60413272     14.73118466    -10.22244519
H      11.82548340     14.45928725     -9.61765512
C      11.62434575     -1.70822466    -10.13270662
C      11.33755833     -1.14481306    -11.14263417
H      11.88042802     -2.21130877     -9.23087834
C      10.99268012     -0.46731314    -12.35694523
H      11.82575382      0.15950118    -12.70124497
H      10.11704925      0.17759941    -12.20587052
H      10.75521279     -1.18893504    -13.14961069
H       1.96289751      4.11140674    -15.23481710
C      11.36481884      7.91414282    -19.38846846
C      10.36923677      8.01789040    -20.35240116
C      12.55124565      7.39241730    -19.59530469
H      13.30035862      6.92532830    -20.19472861
H      10.05964428      7.84335638    -21.35839181
C       3.86477556     16.25524196      5.18050301
C       4.25956996     16.76014441      4.13706218
C       4.68595889     17.30509926      3.00927556
H       5.16490587     17.29178205      0.96460945
C       5.10855577     17.84853928      1.89767220
H       5.42703329     18.88763954      1.84494152
H       3.97989448      7.57703308     -3.88630983
H       3.52196185     15.81691494      6.08735414
H      11.12336927      8.30172460    -18.38810638
   48

C      -5.36297662      1.57377370      1.80609298
C      -4.18955154      1.77112114      1.81129231
H      -6.41271550      1.39722785      1.80143705
H      -3.13981529      1.94767592      1.81593705
C     -11.62299267     -9.15133875     -0.33742048
C     -10.44751989     -8.62185471     -0.29981118
H      -9.47544880     -8.18398020     -0.26870595
C      11.15771062      0.48419833     -0.47286332
C      11.43799904     -0.56894054      0.24943426
H      11.62070972      1.45190140     -0.29142275
H      10.44599105      0.45063516     -1.29506088
C      11.72162940     -1.63500041      0.98016698
C      11.98418584     -2.62153747      1.65631531
H      12.21232987     -3.47873670      2.24381022
C      -0.10907266      7.76519694    -16.15560743
C      -0.27866430      6.35283372    -15.94417710
H       0.58450497      8.44799769    -15.69672236
H      -0.82908531      8.19510542    -16.84032513
C       0.73335844      5.94165235    -15.14630830
H      -0.93134546      5.76444790    -16.54368871
C       0.98412976      4.52767617    -14.96904781
H       1.30903614      6.57211613    -14.51525111
H       0.38767465      3.94313079    -15.62694815
H       0.80171052      4.19350755    -13.96211385
H      11.60708294     14.73255660    -10.21911301
H      11.82838055     14.46065701     -9.61442731
C      11.62793794     -1.70591361    -10.13027122
C      11.34106521     -1.14240588    -11.14011771
H      11.88408314     -2.20908570     -9.22852050
C      10.99602723     -0.46481449    -12.35434986
H      11.82874709      0.16215831    -12.69884282
H      10.12046705      0.18005043    -12.20306013
H      10.75869164     -1.18649742    -13.14699700
H       1.99330894      4.28181821    -15.16142988
C      11.35460688      7.93132082    -19.35369196
C      10.44219066      7.98730232    -20.36757955
C      12.50393065      7.39651798    -19.65042206
H      13.28150366      6.93435802    -20.19332940
H      10.07604134      7.84220758    -21.34275551
C       3.86937814     16.25568063      5.18499297
C       4.26408667     16.76066151      4.14162840
C       4.69047863     17.30588314      3.01398782
H       5.16919400     17.29233631      0.96939055
C       5.11298483     17.84920422      1.90235651
H       5.43152447     18.88827071      1.84945694
H       3.98365890      7.57803303     -3.88182187
H       3.52661487     15.81721499      6.09175544
H      11.11321620      8.31710150    -18.35698157
   48

C      -5.36481709      1.57166301      1.80313654
C      -4.19138135      1.76897999      1.80842650
H      -6.41456596      1.39514562      1.79839747
H      -3.14163680      1.94550983      1.81314900
C     -11.62477290     -9.15362806     -0.33903521
C     -10.44928217     -8.62416873     -0.30140800
H      -9.47719539     -8.18631431     -0.27028635
C      11.15602693      0.48168868     -0.47430897
C      11.43626391     -0.57132263      0.24816459
H      11.61897808      1.44942449     -0.29301811
H      10.44439931      0.44799868     -1.29653033
C      11.71982373     -1.63728555      0.97908393
C      11.98229489     -2.62371781      1.65538642
H      12.21036646     -3.48083710      2.24302181
C       0.01090423      7.69225829    -16.14153929
C      -0.44851418      6.23373600    -15.89405032
H       0.75708830      8.34151849    -15.73090348
H      -0.68704286      8.12382178    -16.84618879
C       0.62445049      5.97049877    -15.15492078
H      -1.06975690      5.73057074    -16.55281585
C       1.00987454      4.59953477    -14.99597113
H       1.07128636      6.57988144    -14.44195024
H       0.55170977      4.01677905    -15.72421214
H       0.79218918      4.18471430    -14.04323060
H      11.60664835     14.72821149    -10.22258219
H      11.82779784     14.45642097     -9.61787330
C      11.62755973     -1.70970545    -10.13117889
C      11.34082725     -1.14632460    -11.14112767
H      11.88357379     -2.21276459     -9.22933934
C      10.99592747     -0.46889923    -12.35549311
H      11.82850771      0.15808765    -12.70006855
H      10.12040269      0.17599005    -12.20434914
H      10.75880112     -1.19077043    -13.14803163
H       2.02018362      4.45729279    -15.08993353
C      11.34358295      7.94046573    -19.32425820
C      10.51540862      7.94813413    -20.38757879
C      12.45519547      7.39275422    -19.71036916
H      13.26215220      6.93561595    -20.19612479
H      10.09218185      7.83336448    -21.33226252
C       3.86728764     16.25385371      5.18051062
C       4.26212964     16.75868638      4.13717818
C       4.68875389     17.30392829      3.00963333
H       5.16764169     17.28970709      0.96517117
C       5.11138727     17.84688579      1.89792154
H       5.42999437     18.88590511      1.84468363
H       3.98260981      7.57481253     -3.88452552
H       3.52437923     15.81544538      6.08722076
H      11.10204406      8.32463914    -18.33141900
   48

C      -5.36370667      1.57213196      1.80312856
C      -4.19025439      1.76937436      1.80842603
H      -6.41347135      1.39568276      1.79838047
H      -3.14049638      1.94583903      1.81315245
C     -11.62438101     -9.15271640     -0.33943193
C     -10.44885424     -8.62333451     -0.30178678
H      -9.47673799     -8.18554351     -0.27064997
C      11.15693598      0.48120239     -0.47450288
C      11.43712037     -0.57183085      0.24793060
H      11.61992771      1.44891003     -0.29320666
H      10.44531141      0.44757872     -1.29670942
C      11.72060933     -1.63784731      0.97881897
C      11.98299536     -2.62431352      1.65507491
H      12.21099482     -3.48147315      2.24267678
C       0.13436233      7.61838527    -16.12347451
C      -0.61234726      6.11733641    -15.83859646
H       0.93326661      8.22892426    -15.76027662
H      -0.54128433      8.05160296    -16.84745729
C       0.51561182      6.00492002    -15.16035636
H      -1.20372317      5.70640312    -16.55665839
C       1.03829500      4.68122432    -15.02030838
H       0.82327199      6.58652161    -14.36692165
H       0.72267086      4.11322694    -15.81567477
H       0.78684408      4.18215291    -14.12554482
H      11.60859703     14.72789326    -10.22226098
H      11.82969333     14.45607166     -9.61757784
C      11.62837735     -1.70995354    -10.13134402
C      11.34170492     -1.14652015    -11.14126472
H      11.88434010     -2.21305884     -9.22952961
C      10.99687682     -0.46903444    -12.35559824
H      11.82945614      0.15792029    -12.70016403
H      10.12142149      0.17592325    -12.20442421
H      10.75974962     -1.19089739    -13.14814756
H       2.04469053      4.64754241    -15.01088827
C      11.33435466      7.95473367    -19.29237670
C      10.59102733      7.91443473    -20.40404755
C      12.40774587      7.39466371    -19.76757195
H      13.24455764      6.94269125    -20.19622249
H      10.11013874      7.83098459    -21.31856118
C       3.86932649     16.25367525      5.18072524
C       4.26420079     16.75852969      4.13745310
C       4.69094003     17.30397436      3.01003191
H       5.16973582     17.28942346      0.96561011
C       5.11357695     17.84674683      1.89826609
H       5.43228052     18.88571435      1.84483153
H       3.98426470      7.57487287     -3.88427015
H       3.52635579     15.81517553      6.08735683
H      11.09285998      8.33729515    -18.30322686
   48

C      -5.36336635      1.57295194      1.80338826
C      -4.18990067      1.77011498      1.80862251
H      -6.41314427      1.39657472      1.79869514
H      -3.14013178      1.94650883      1.81329118
C     -11.62505143     -9.15135733     -0.33978755
C     -10.44948913     -8.62205930     -0.30216552
H      -9.47734477     -8.18433684     -0.27104873
C      11.15688103      0.48077359     -0.47532408
C      11.43702897     -0.57231152      0.24702050
H      11.61995649      1.44843607     -0.29399669
H      10.44520162      0.44726058     -1.29749591
C      11.72046398     -1.63841098      0.97782977
C      11.98278066     -2.62493792      1.65399544
H      12.21072176     -3.48216087      2.24152629
C       0.25581176      7.54005992    -16.10247862
C      -0.76818565      5.99729783    -15.78367367
H       1.10508017      8.10643166    -15.78538553
H      -0.39771541      7.97333695    -16.84606878
C       0.40547441      6.04121621    -15.16614967
H      -1.33511869      5.68747777    -16.55902110
C       1.06490042      4.76810465    -15.04397662
H       0.57220808      6.58800591    -14.29999932
H       0.89166171      4.22764866    -15.90009898
H       0.78244581      4.18383828    -14.21089120
H      11.60920611     14.72818120    -10.22213272
H      11.83032916     14.45628812     -9.61747528
C      11.62734577     -1.70999223    -10.13231281
C      11.34066615     -1.14648723    -11.14217362
H      11.88332299     -2.21316042     -9.23055024
C      10.99585252     -0.46890918    -12.35643021
H      11.82853973      0.15795669    -12.70096853
H      10.12046725      0.17613905    -12.20517443
H      10.75857905     -1.19069320    -13.14901280
H       2.06147240      4.84352887    -14.92836393
C      11.32353627      7.96918448    -19.26127821
C      10.66547688      7.88153246    -20.42004152
C      12.35842336      7.39761103    -19.82480338
H      13.22533749      6.95078361    -20.19657251
H      10.12667074      7.82987554    -21.30473865
C       3.87108872     16.25367069      5.18119334
C       4.26591646     16.75857862      4.13795415
C       4.69267945     17.30425941      3.01062531
H       5.17119973     17.28944242      0.96617347
C       5.11522391     17.84687893      1.89877330
H       5.43402467     18.88579376      1.84515001
H       3.98482196      7.57541967     -3.88426871
H       3.52812039     15.81505133      6.08776887
H      11.08229411      8.35042562    -18.27555249
   48

C      -5.36378814      1.57383578      1.80426029
C      -4.19031329      1.77092150      1.80935054
H      -6.41357490      1.39752739      1.79969642
H      -3.14053634      1.94724465      1.81389179
C     -11.62662445     -9.14991348     -0.33927429
C     -10.45102872     -8.62069629     -0.30174644
H      -9.47885824     -8.18303990     -0.27070915
C      11.15597724      0.48033000     -0.47651524
C      11.43613263     -0.57281573      0.24571222
H      11.61916094      1.44794358     -0.29516271
H      10.44417933      0.44694032     -1.29861953
C      11.71955824     -1.63900610      0.97641514
C      11.98184668     -2.62560042      1.65246621
H      12.20976510     -3.48289210      2.23990547
C       0.37270669      7.45781850    -16.07663205
C      -0.91389970      5.87357154    -15.73013106
H       1.26866931      7.97626151    -15.80479187
H      -0.25879275      7.88908348    -16.84058970
C       0.29607579      6.07962567    -15.17283586
H      -1.46373753      5.67296844    -16.55985692
C       1.08817559      4.85866368    -15.06600747
H       0.32912627      6.58484893    -14.24459521
H       1.05325043      4.35539183    -15.97467130
H       0.77815763      4.19114574    -14.29745255
H      11.60826150     14.72871830    -10.22229995
H      11.82949150     14.45673904     -9.61766665
C      11.62466985     -1.70997881    -10.13380330
C      11.33789399     -1.14640031    -11.14358737
H      11.88074154     -2.21321170     -9.23210686
C      10.99299764     -0.46872108    -12.35774257
H      11.82584174      0.15802969    -12.70227882
H      10.11767030      0.17641221    -12.20635341
H      10.75546044     -1.19038030    -13.15036281
H       2.06964409      5.03929601    -14.84443613
C      11.31049675      7.98317398    -19.23112899
C      10.73786458      7.84915542    -20.43554897
C      12.30676840      7.40122918    -19.88195706
H      13.20379941      6.95944879    -20.19733461
H      10.14117232      7.82933380    -21.29080423
C       3.87237455     16.25366390      5.18196186
C       4.26706796     16.75864347      4.13872082
C       4.69375701     17.30457931      3.01144568
H       5.17181860     17.28952876      0.96689749
C       5.11611007     17.84706397      1.89946858
H       5.43500407     18.88592872      1.84564849
H       3.98411403      7.57609758     -3.88432434
H       3.52948306     15.81490859      6.08851083
H      11.06976151      8.36351322    -18.24846238
   48

C      -5.36433197      1.57471249      1.80516555
C      -4.19084723      1.77170676      1.81010168
H      -6.41412671      1.39848394      1.80074269
H      -3.14105979      1.94794505      1.81450939
C     -11.62838762     -9.14840370     -0.33840444
C     -10.45275301     -8.61928019     -0.30099356
H      -9.48055141     -8.18170079     -0.27005448
C      11.15511617      0.47971515     -0.47765684
C      11.43528143     -0.57348244      0.24446948
H      11.61842010      1.44728274     -0.29629251
H      10.44318499      0.44643916     -1.29969397
C      11.71869958     -1.63975370      0.97508305
C      11.98096126     -2.62640531      1.65103596
H      12.20885812     -3.48375641      2.23839846
C       0.48493524      7.37205827    -16.04580452
C      -1.04786690      5.74881238    -15.67820061
H       1.42452016      7.84088846    -15.81918619
H      -0.12418825      7.79941713    -16.83074683
C       0.19124778      6.12011377    -15.18149167
H      -1.58806006      5.66140979    -16.55955478
C       1.10885529      4.95092997    -15.08642146
H       0.10218850      6.57782825    -14.20049194
H       1.20591503      4.48974080    -16.03923949
H       0.77451678      4.20440673    -14.38399278
H      11.60720407     14.72899010    -10.22276227
H      11.82857507     14.45693751     -9.61813654
C      11.62193737     -1.71019018    -10.13532308
C      11.33503441     -1.14654735    -11.14504778
H      11.87812643     -2.21347960     -9.23367710
C      10.99001336     -0.46877409    -12.35912058
H      11.82303187      0.15785393    -12.70367106
H      10.11472150      0.17643142    -12.20760735
H      10.75216863     -1.19029169    -13.15177532
H       2.07169229      5.23001784    -14.76181479
C      11.29676499      7.99593815    -19.20187446
C      10.80954353      7.81684464    -20.45044608
C      12.25447227      7.40492742    -19.93871655
H      13.18145927      6.96803064    -20.19836433
H      10.15531595      7.82848446    -21.27669016
C       3.87369315     16.25356742      5.18267850
C       4.26823628     16.75861041      4.13941594
C       4.69483420     17.30479166      3.01217265
H       5.17239298     17.28948874      0.96749647
C       5.11697940     17.84713115      1.90004841
H       5.43598049     18.88594539      1.84602070
H       3.98314511      7.57658796     -3.88456518
H       3.53089241     15.81468276      6.08921764
H      11.05673716      8.37587829    -18.22187087
   48

C      -5.36737168      1.57284037      1.80116007
C      -4.19395738      1.77021765      1.80649130
H      -6.41710043      1.39626576      1.79638969
H      -3.14422909      1.94679462      1.81125943
C     -11.62713529     -9.15253507     -0.34323427
C     -10.45169240     -8.62302528     -0.30547312
H      -9.47964924     -8.18512643     -0.27424489
C      11.15361936      0.48279584     -0.47521990
C      11.43388229     -0.57019599      0.24715508
H      11.61655168      1.45055284     -0.29381006
H      10.44196744      0.44917008     -1.29753502
C      11.71738096     -1.63628630      0.97803339
C      11.97969672     -2.62275189      1.65421616
H      12.20764200     -3.47995033      2.24178728
C       0.59573106      7.28017256    -16.01344361
C      -1.16700984      5.62320351    -15.63073685
H       1.57691615      7.69946689    -15.83189646
H       0.00975451      7.70174886    -16.81962473
C       0.09688273      6.15903945    -15.19550710
H      -1.70344620      5.64686371    -16.56198529
C       1.13129346      5.04040599    -15.10762906
H      -0.10354544      6.56466295    -14.16813752
H       1.35410775      4.62169970    -16.09712270
H       0.77515549      4.22033094    -14.47178296
H      11.60413275     14.73118466    -10.22244517
H      11.82548340     14.45928729     -9.61765517
C      11.62434566     -1.70822719    -10.13270793
C      11.33755410     -1.14482151    -11.14263784
H      11.88043105     -2.21130340     -9.23087620
C      10.99267954     -0.46731489    -12.35694612
H      11.82575587      0.15949915    -12.70124062
H      10.11704990      0.17759912    -12.20586915
H      10.75521168     -1.18893151    -13.14961649
H       2.07359238      5.41077719    -14.68433891
C      11.28751270      8.00793219    -19.17136993
C      10.88621480      7.78488780    -20.46272488
C      12.20745808      7.40949517    -19.99226073
H      13.16438060      6.97764892    -20.19646487
H      10.17539946      7.82683501    -21.26077346
C       3.86480347     16.25513523      5.18037575
C       4.25949784     16.76021019      4.13718007
C       4.68633188     17.30660199      3.01006369
H       5.16439090     17.29085653      0.96547339
C       5.10859315     17.84876123      1.89788571
H       5.42731122     18.88764861      1.84361147
H       3.97989448      7.57703308     -3.88630983
H       3.52183278     15.81614785      6.08682801
H      11.04770806      8.38806688    -18.19381329
