   29
   0.0000000000000000     
C       5.04097744     17.83670089      1.91389365
C       4.71016967     16.80467892      2.81398473
C       4.44095152     16.27458025      4.04242507
C       4.26457715     16.24991593      5.35463058
C      11.95527895      4.66223403    -23.23043356
C       9.45917981      5.24215533    -23.00664785
C      10.80384595      4.99830828    -23.07716823
C       1.84351762      4.56992050    -15.24123843
C       1.65637974      6.02478018    -15.35864242
C       0.89015698      6.57503071    -16.38609573
C       0.70618159      7.93201631    -16.52119898
C      -4.19231068      1.77087617      1.80503453
C      -5.36572480      1.57349936      1.79970361
H       3.98578845      7.63635507     -3.81964920
H       5.13870639     16.05410705      6.01198558
H       3.25527829     16.46625913      5.76594819
H       5.20814083     18.84458890      2.33957628
H       5.11908254     17.60430719      0.83552528
H       9.19865504      6.10952792    -22.39272682
H      12.97059298      4.36922450    -23.36416282
H       2.48841606      4.19751945    -16.05034777
H       2.31261865      4.29117586    -14.28962581
H       0.88714722      4.03332356    -15.31169342
H       2.13698046      6.67696673    -14.62208255
H       0.42009692      5.89515218    -17.10809224
H       0.11045325      8.35340117    -17.32307995
H       1.14387621      8.65192956    -15.83712471
H      -3.14258527      1.94747048      1.80978169
H      -6.41545618      1.39694177      1.79491231
