   29
   0.0000000000000000     
C       5.03005934     17.80352247      1.94168499
C       4.69916920     16.73332184      2.77560255
C       4.44124052     16.25694275      4.02195382
C       4.27542676     16.27856992      5.32199380
C      11.54653796      4.69394322    -22.92710898
C       9.05294689      5.31371954    -22.67186829
C      10.37827572      4.98423680    -22.80762080
C       0.45072264      5.04189082    -13.90831429
C       0.97506263      6.08862933    -14.54208547
C       0.70592396      6.36238333    -15.94707878
C       1.23032616      7.40907837    -16.58087028
C      -4.19137852      1.77033437      1.80345607
C      -5.36479503      1.57297200      1.79813305
H       3.99637481      7.63893665     -3.78503985
H       5.14120309     16.09996478      5.97595661
H       3.28049353     16.50753270      5.73055532
H       5.18159442     18.77349105      2.42825694
H       5.12684461     17.65530682      0.86096571
H       8.74687595      6.16193516    -22.07024404
H      12.57405689      4.43859389    -23.03209180
H       8.27972754      4.73403548    -23.16295737
H       0.64825064      4.83364002    -12.86135690
H      -0.20886136      4.32416017    -14.38867985
H       1.63738303      6.79059486    -14.01981965
H       0.04355187      5.66045397    -16.46932766
H       1.03280154      7.61732690    -17.62782876
H       1.88996209      8.12677270    -16.10052176
H      -3.14166489      1.94700066      1.80813436
H      -6.41453487      1.39646670      1.79326213
