   29
   0.0000000000000000     
C       5.10859315     17.84876110      1.89788520
C       4.68633152     17.30660178      3.01006369
C       4.25949784     16.76021021      4.13717980
C       3.86480339     16.25513526      5.18037576
C      12.20745785      7.40949487    -19.99226111
C      10.88621450      7.78488744    -20.46272504
C      11.28751245      8.00793196    -19.17137039
C       1.13129333      5.04040576    -15.10762917
C       0.09688253      6.15903946    -15.19550751
C      -1.16700984      5.62320336    -15.63073704
C       0.59573073      7.28017257    -16.01344363
C      -4.19395778      1.77021765      1.80649108
C      -5.36737180      1.57284028      1.80116007
H       3.97989428      7.57703286     -3.88630984
H       3.52183270     15.81614785      6.08682755
H       5.42731123     18.88764858      1.84361112
H       5.16439091     17.29085617      0.96547339
H      11.04770769      8.38806690    -18.19381365
H      10.17539925      7.82683502    -21.26077392
H      13.16438062      6.97764893    -20.19646493
H       2.07359238      5.41077706    -14.68433893
H       0.77515531      4.22033046    -14.47178298
H       1.35410770      4.62169948    -16.09712300
H      -0.10354587      6.56466296    -14.16813788
H      -1.70344635      5.64686372    -16.56198576
H       0.00975432      7.70174878    -16.81962501
H       1.57691573      7.69946668    -15.83189648
H      -3.14422946      1.94679416      1.81125904
H      -6.41710044      1.39626576      1.79638969
