   29
   0.0000000000000000     
C       5.09333397     18.00358311      2.02559876
C       4.67139968     17.46266209      3.13861859
C       4.24447947     16.91564570      4.26528841
C       3.84947334     16.40961284      5.30803649
C       5.76584000      7.72638416    -16.73457159
C       5.35722002      5.81338230    -18.16622109
C       6.23858585      6.80505914    -17.59944896
C       4.33228502      7.78093210    -16.35192955
C       3.59275030      6.45116242    -16.53717156
C       4.10408423      5.65245499    -17.69085544
C       2.13865181      6.65840504    -16.61663971
C      -3.85861613      1.88579103     -1.41062401
C      -4.29240458      1.98359200     -2.62822071
H       5.76120046      8.26491705     -4.35009736
H       3.50627306     15.96996458      6.21408490
H       5.41221289     19.04237572      1.97028010
H       5.14867075     17.44473095      1.09371354
H       7.29103929      6.79112411    -17.89964125
H       5.73611610      5.19659279    -18.98730553
H       4.23551236      8.11121488    -15.29904939
H       6.42124631      8.49480330    -16.31183561
H       3.85541859      8.57763435    -16.96076550
H       3.75710850      5.81274201    -15.62702978
H       3.42834914      4.90263685    -18.11669376
H       1.67752269      7.55956714    -16.23298337
H       1.49136215      5.92890968    -17.08671303
H      -3.60812438      2.21332044     -3.44344461
H      -3.87689924      1.73476147     -0.35630224
H      -5.33020448      1.85104728     -2.92935991
